1 -Aminocyclopropanecarboxylic Acid
  -OEChem-08301611272D

  7  7  0     0  0  0  0  0  0999 V2000
   -0.7663    0.6425    0.0000 N   0  0  0  0  0  0  0  0  0  0  0  0
    0.0000    0.0000    0.0000 C   0  0  0  0  0  0  0  0  0  0  0  0
   -0.5000   -0.8682    0.0000 C   0  0  0  0  0  0  0  0  0  0  0  0
    0.5000   -0.8682    0.0000 C   0  0  0  0  0  0  0  0  0  0  0  0
    0.7663    0.6425    0.0000 C   0  0  0  0  0  0  0  0  0  0  0  0
    1.7058    0.3002    0.0000 O   0  0  0  0  0  0  0  0  0  0  0  0
    0.5930    1.6274    0.0000 O   0  0  0  0  0  0  0  0  0  0  0  0
  1  2  1  0  0  0  0
  2  4  1  0  0  0  0
  2  3  1  0  0  0  0
  3  4  1  0  0  0  0
  2  5  1  0  0  0  0
  5  6  2  0  0  0  0
  5  7  1  0  0  0  0
M  END
>  <Name>
1 -Aminocyclopropanecarboxylic Acid

>  <CAS #>
22059-21-8

>  <human Clearance (mL/min/kg)>
1.5

>  <Primary mechanism (metabolic, biliary or renal)>
renal

>  <seqId>
3.0

>  <Code (mechanism and clearance degree index)>
R1

>  < Five M1 and R1 test groups>
R1_4

>  <formamide>
0

>  <prodrug phosphates>
0

>  <VolSurf_V>
248.625

>  <VolSurf_S>
204.905

>  <VolSurf_R>
1.21337

>  <VolSurf_G>
1.10932

>  <VolSurf_IW1>
0.310802

>  <VolSurf_IW2>
0.516166

>  <VolSurf_IW3>
1.0518

>  <VolSurf_IW4>
1.90043

>  <VolSurf_ID1>
0.17222

>  <VolSurf_ID2>
0.0

>  <VolSurf_ID3>
0.0

>  <VolSurf_ID4>
0.0

>  <VolSurf_HL1>
226.0

>  <VolSurf_HL2>
126.5

>  <VolSurf_A>
0.0

>  <VolSurf_CP>
0.0

>  <VolSurf_POL>
10.73

>  <VolSurf_MW>
101.104

>  <VolSurf_FLEX>
0.270885

>  <VolSurf_FLEX_RB>
0.135442

>  <VolSurf_NCC>
2.0

>  <VolSurf_LOGP n-Oct>
-0.661

>  <VolSurf_LOGP c-Hex>
-1.884

>  <VolSurf_PSA>
80.73

>  <VolSurf_HSA>
124.175

>  <VolSurf_PSAR>
0.393987

>  <VolSurf_PHSAR>
0.65013

>  <VolSurf_LgD5>
-2.41172

>  <VolSurf_LgD6>
-2.41253

>  <VolSurf_LgD7>
-2.42548

>  <VolSurf_LgD7.5>
-2.45515

>  <VolSurf_LgD8>
-2.53711

>  <VolSurf_LgD9>
-3.03362

>  <VolSurf_LgD10>
-3.75356

>  <VolSurf_AUS7.4>
0.0

>  <VolSurf_%FU4>
0.0

>  <VolSurf_%FU5>
0.0

>  <VolSurf_%FU6>
0.0

>  <VolSurf_%FU7>
0.0

>  <VolSurf_%FU8>
0.0

>  <VolSurf_%FU9>
0.0

>  <VolSurf_%FU10>
0.0

>  <ID>
0

>  <MOKAID>
1

>  <Clearance Route>
uncertain

>  <PC1>
-2.60134

>  <PC2>
6.11303

$$$$
Abacavir
  -OEChem-08301611272D

 21 24  0     1  0  0  0  0  0999 V2000
   -1.7333   -2.0149    0.0000 N   0  0  0  0  0  0  0  0  0  0  0  0
   -0.8680   -1.5137    0.0000 C   0  0  0  0  0  0  0  0  0  0  0  0
   -0.8680   -0.5079    0.0000 N   0  0  0  0  0  0  0  0  0  0  0  0
    0.0000    0.0000    0.0000 C   0  0  0  0  0  0  0  0  0  0  0  0
   -0.0000    1.0000    0.0000 N   0  0  0  0  0  0  0  0  0  0  0  0
   -0.8660    1.5000    0.0000 C   0  0  0  0  0  0  0  0  0  0  0  0
   -1.3679    2.3671    0.0000 C   0  0  0  0  0  0  0  0  0  0  0  0
   -1.8679    1.5011    0.0000 C   0  0  0  0  0  0  0  0  0  0  0  0
    0.8680   -0.5079    0.0000 C   0  0  0  0  0  0  0  0  0  0  0  0
    1.8258   -0.1969    0.0000 N   0  0  0  0  0  0  0  0  0  0  0  0
    2.4178   -1.0115    0.0000 C   0  0  0  0  0  0  0  0  0  0  0  0
    1.8258   -1.8263    0.0000 N   0  0  0  0  0  0  0  0  0  0  0  0
    2.1348   -2.7774    0.0000 C   0  0  2  0  0  0  0  0  0  0  0  0
    3.0870   -3.0836    0.0000 C   0  0  0  0  0  0  0  0  0  0  0  0
    3.0862   -4.0881    0.0000 C   0  0  2  0  0  0  0  0  0  0  0  0
    3.8942   -4.6773    0.0000 C   0  0  0  0  0  0  0  0  0  0  0  0
    4.8084   -4.2722    0.0000 O   0  0  0  0  0  0  0  0  0  0  0  0
    2.1327   -4.3950    0.0000 C   0  0  0  0  0  0  0  0  0  0  0  0
    1.5445   -3.5846    0.0000 C   0  0  0  0  0  0  0  0  0  0  0  0
    0.8680   -1.5150    0.0000 C   0  0  0  0  0  0  0  0  0  0  0  0
    0.0000   -2.0116    0.0000 N   0  0  0  0  0  0  0  0  0  0  0  0
  1  2  1  0  0  0  0
  2 21  2  0  0  0  0
  2  3  1  0  0  0  0
  3  4  2  0  0  0  0
  4  5  1  0  0  0  0
  5  6  1  0  0  0  0
  6  8  1  0  0  0  0
  6  7  1  0  0  0  0
  7  8  1  0  0  0  0
  4  9  1  0  0  0  0
  9 20  2  0  0  0  0
  9 10  1  0  0  0  0
 10 11  2  0  0  0  0
 11 12  1  0  0  0  0
 13 12  1  6  0  0  0
 13 19  1  0  0  0  0
 13 14  1  0  0  0  0
 14 15  1  0  0  0  0
 15 16  1  6  0  0  0
 16 17  1  0  0  0  0
 15 18  1  0  0  0  0
 18 19  2  0  0  0  0
 12 20  1  0  0  0  0
 20 21  1  0  0  0  0
M  END
>  <Name>
Abacavir

>  <CAS #>
136470-78-5

>  <human Clearance (mL/min/kg)>
13.0

>  <Primary mechanism (metabolic, biliary or renal)>
metabolic

>  <seqId>
5.0

>  <Code (mechanism and clearance degree index)>
M1

>  < Five M1 and R1 test groups>
M1_5

>  <formamide>
0

>  <prodrug phosphates>
0

>  <VolSurf_V>
634.25

>  <VolSurf_S>
448.681

>  <VolSurf_R>
1.41359

>  <VolSurf_G>
1.40903

>  <VolSurf_IW1>
0.0631538

>  <VolSurf_IW2>
0.164784

>  <VolSurf_IW3>
0.352825

>  <VolSurf_IW4>
0.274157

>  <VolSurf_ID1>
0.0486564

>  <VolSurf_ID2>
0.0793968

>  <VolSurf_ID3>
0.121758

>  <VolSurf_ID4>
0.13895

>  <VolSurf_HL1>
2.24646

>  <VolSurf_HL2>
1.78166

>  <VolSurf_A>
2.8065

>  <VolSurf_CP>
1.28439

>  <VolSurf_POL>
30.854

>  <VolSurf_MW>
286.332

>  <VolSurf_FLEX>
0.959636

>  <VolSurf_FLEX_RB>
0.159939

>  <VolSurf_NCC>
0.0

>  <VolSurf_LOGP n-Oct>
0.993

>  <VolSurf_LOGP c-Hex>
-2.329

>  <VolSurf_PSA>
99.18

>  <VolSurf_HSA>
349.501

>  <VolSurf_PSAR>
0.221048

>  <VolSurf_PHSAR>
0.283776

>  <VolSurf_LgD5>
0.713725

>  <VolSurf_LgD6>
0.955474

>  <VolSurf_LgD7>
0.989098

>  <VolSurf_LgD7.5>
0.991761

>  <VolSurf_LgD8>
0.992604

>  <VolSurf_LgD9>
0.992923

>  <VolSurf_LgD10>
0.992619

>  <VolSurf_AUS7.4>
2.0

>  <VolSurf_%FU4>
9.97012

>  <VolSurf_%FU5>
52.5534

>  <VolSurf_%FU6>
91.7195

>  <VolSurf_%FU7>
99.1052

>  <VolSurf_%FU8>
99.9089

>  <VolSurf_%FU9>
99.9823

>  <VolSurf_%FU10>
99.9123

>  <ID>
1

>  <MOKAID>
2

>  <Clearance Route>
metabolic

>  <PC1>
1.9130900000000002

>  <PC2>
0.724371

$$$$
Acamprosate
  -OEChem-08301611272D

 11 10  0     0  0  0  0  0  0999 V2000
    0.0000    0.0000    0.0000 O   0  0  0  0  0  0  0  0  0  0  0  0
    1.0000    0.0000    0.0000 S   0  0  0  0  0  0  0  0  0  0  0  0
    1.0000    1.0000    0.0000 O   0  0  0  0  0  0  0  0  0  0  0  0
    1.0000   -1.0000    0.0000 O   0  0  0  0  0  0  0  0  0  0  0  0
    2.0000   -0.0000    0.0000 C   0  0  0  0  0  0  0  0  0  0  0  0
    2.5000    0.8660    0.0000 C   0  0  0  0  0  0  0  0  0  0  0  0
    3.5000    0.8660    0.0000 C   0  0  0  0  0  0  0  0  0  0  0  0
    4.0000    1.7321    0.0000 N   0  0  0  0  0  0  0  0  0  0  0  0
    5.0000    1.7321    0.0000 C   0  0  0  0  0  0  0  0  0  0  0  0
    5.5000    0.8660    0.0000 O   0  0  0  0  0  0  0  0  0  0  0  0
    5.5000    2.5981    0.0000 C   0  0  0  0  0  0  0  0  0  0  0  0
  1  2  1  0  0  0  0
  2  3  2  0  0  0  0
  2  4  2  0  0  0  0
  2  5  1  0  0  0  0
  5  6  1  0  0  0  0
  6  7  1  0  0  0  0
  7  8  1  0  0  0  0
  8  9  1  0  0  0  0
  9 10  2  0  0  0  0
  9 11  1  0  0  0  0
M  END
>  <Name>
Acamprosate

>  <CAS #>
77337-76-9

>  <human Clearance (mL/min/kg)>
3.75

>  <Primary mechanism (metabolic, biliary or renal)>
renal

>  <seqId>
8.0

>  <Code (mechanism and clearance degree index)>
R1

>  < Five M1 and R1 test groups>
R1_2

>  <formamide>
0

>  <prodrug phosphates>
0

>  <VolSurf_V>
407.125

>  <VolSurf_S>
316.075

>  <VolSurf_R>
1.28807

>  <VolSurf_G>
1.29787

>  <VolSurf_IW1>
0.105528

>  <VolSurf_IW2>
0.194662

>  <VolSurf_IW3>
0.218007

>  <VolSurf_IW4>
2.37623

>  <VolSurf_ID1>
0.132704

>  <VolSurf_ID2>
0.196899

>  <VolSurf_ID3>
0.261797

>  <VolSurf_ID4>
0.435058

>  <VolSurf_HL1>
7.69524

>  <VolSurf_HL2>
3.39655

>  <VolSurf_A>
3.06884

>  <VolSurf_CP>
0.180697

>  <VolSurf_POL>
15.745

>  <VolSurf_MW>
180.202

>  <VolSurf_FLEX>
1.51473

>  <VolSurf_FLEX_RB>
0.302945

>  <VolSurf_NCC>
1.0

>  <VolSurf_LOGP n-Oct>
-1.721

>  <VolSurf_LOGP c-Hex>
-5.921

>  <VolSurf_PSA>
88.69

>  <VolSurf_HSA>
227.385

>  <VolSurf_PSAR>
0.280598

>  <VolSurf_PHSAR>
0.390044

>  <VolSurf_LgD5>
-5.19606

>  <VolSurf_LgD6>
-5.21844

>  <VolSurf_LgD7>
-5.22074

>  <VolSurf_LgD7.5>
-5.22092

>  <VolSurf_LgD8>
-5.22097

>  <VolSurf_LgD9>
-5.221

>  <VolSurf_LgD10>
-5.22102

>  <VolSurf_AUS7.4>
0.0

>  <VolSurf_%FU4>
0.0186972

>  <VolSurf_%FU5>
0.00187004

>  <VolSurf_%FU6>
1.87007E-4

>  <VolSurf_%FU7>
1.87007E-5

>  <VolSurf_%FU8>
1.87007E-6

>  <VolSurf_%FU9>
1.87006E-7

>  <VolSurf_%FU10>
1.86998E-8

>  <ID>
2

>  <MOKAID>
3

>  <Clearance Route>
renal

>  <PC1>
-4.5827

>  <PC2>
4.38989

$$$$
Acarbose
  -OEChem-08301611272D

 44 46  0     1  0  0  0  0  0999 V2000
    1.7350    2.0001    0.0000 C   0  0  0  0  0  0  0  0  0  0  0  0
    0.8675    1.5027    0.0000 C   0  0  1  0  0  0  0  0  0  0  0  0
   -0.0000    2.0104    0.0000 O   0  0  0  0  0  0  0  0  0  0  0  0
   -0.8675    1.5027    0.0000 C   0  0  2  0  0  0  0  0  0  0  0  0
   -1.7350    2.0001    0.0000 O   0  0  0  0  0  0  0  0  0  0  0  0
   -1.7379    3.0001    0.0000 C   0  0  1  0  0  0  0  0  0  0  0  0
   -0.8741    3.5040    0.0000 C   0  0  2  0  0  0  0  0  0  0  0  0
   -0.0073    3.0053    0.0000 O   0  0  0  0  0  0  0  0  0  0  0  0
   -0.8727    4.5040    0.0000 C   0  0  1  0  0  0  0  0  0  0  0  0
   -0.0067    5.0040    0.0000 O   0  0  0  0  0  0  0  0  0  0  0  0
   -1.7440    5.0053    0.0000 C   0  0  1  0  0  0  0  0  0  0  0  0
   -1.7425    6.0053    0.0000 O   0  0  0  0  0  0  0  0  0  0  0  0
   -2.6078    6.5065    0.0000 C   0  0  2  0  0  0  0  0  0  0  0  0
   -3.4746    6.0078    0.0000 C   0  0  2  0  0  0  0  0  0  0  0  0
   -4.3399    6.5091    0.0000 O   0  0  0  0  0  0  0  0  0  0  0  0
   -3.4760    5.0078    0.0000 C   0  0  0  0  0  0  0  0  0  0  0  0
   -4.3428    4.5091    0.0000 O   0  0  0  0  0  0  0  0  0  0  0  0
   -2.6064    7.5065    0.0000 C   0  0  2  0  0  0  0  0  0  0  0  0
   -1.7396    8.0053    0.0000 O   0  0  0  0  0  0  0  0  0  0  0  0
   -3.4717    8.0078    0.0000 C   0  0  1  0  0  0  0  0  0  0  0  0
   -4.3384    7.5091    0.0000 O   0  0  0  0  0  0  0  0  0  0  0  0
   -3.4702    9.0078    0.0000 C   0  0  0  0  0  0  0  0  0  0  0  0
   -4.3355    9.5091    0.0000 O   0  0  0  0  0  0  0  0  0  0  0  0
   -2.6167    4.5066    0.0000 O   0  0  0  0  0  0  0  0  0  0  0  0
   -2.6092    3.5014    0.0000 C   0  0  2  0  0  0  0  0  0  0  0  0
   -3.4730    2.9976    0.0000 C   0  0  0  0  0  0  0  0  0  0  0  0
   -3.4686    1.9976    0.0000 O   0  0  0  0  0  0  0  0  0  0  0  0
   -0.8675    0.4975    0.0000 C   0  0  2  0  0  0  0  0  0  0  0  0
   -1.7328   -0.0038    0.0000 O   0  0  0  0  0  0  0  0  0  0  0  0
    0.0000    0.0000    0.0000 C   0  0  1  0  0  0  0  0  0  0  0  0
    0.0000   -1.0000    0.0000 O   0  0  0  0  0  0  0  0  0  0  0  0
    0.8675    0.4975    0.0000 C   0  0  2  0  0  0  0  0  0  0  0  0
    1.7328   -0.0038    0.0000 N   0  0  0  0  0  0  0  0  0  0  0  0
    2.5995    0.4950    0.0000 C   0  0  1  0  0  0  0  0  0  0  0  0
    2.6025    1.4950    0.0000 C   0  0  0  0  0  0  0  0  0  0  0  0
    3.4670    1.9975    0.0000 C   0  0  0  0  0  0  0  0  0  0  0  0
    3.4656    2.9975    0.0000 C   0  0  0  0  0  0  0  0  0  0  0  0
    4.3309    3.4988    0.0000 O   0  0  0  0  0  0  0  0  0  0  0  0
    4.3376    1.4949    0.0000 C   0  0  1  0  0  0  0  0  0  0  0  0
    5.2021    1.9975    0.0000 O   0  0  0  0  0  0  0  0  0  0  0  0
    4.3435    0.4898    0.0000 C   0  0  2  0  0  0  0  0  0  0  0  0
    5.2095   -0.0102    0.0000 O   0  0  0  0  0  0  0  0  0  0  0  0
    3.4701   -0.0076    0.0000 C   0  0  1  0  0  0  0  0  0  0  0  0
    3.4671   -1.0076    0.0000 O   0  0  0  0  0  0  0  0  0  0  0  0
  2  1  1  6  0  0  0
  2 32  1  0  0  0  0
  2  3  1  0  0  0  0
  3  4  1  0  0  0  0
  4  5  1  1  0  0  0
  6  5  1  6  0  0  0
  6 25  1  0  0  0  0
  6  7  1  0  0  0  0
  7  8  1  1  0  0  0
  7  9  1  0  0  0  0
  9 10  1  6  0  0  0
  9 11  1  0  0  0  0
 11 12  1  6  0  0  0
 13 12  1  6  0  0  0
 13 14  1  0  0  0  0
 14 15  1  1  0  0  0
 14 16  1  0  0  0  0
 16 17  1  0  0  0  0
 13 18  1  0  0  0  0
 18 19  1  1  0  0  0
 18 20  1  0  0  0  0
 20 21  1  1  0  0  0
 20 22  1  0  0  0  0
 22 23  2  0  0  0  0
 11 24  1  0  0  0  0
 24 25  1  0  0  0  0
 25 26  1  1  0  0  0
 26 27  1  0  0  0  0
  4 28  1  0  0  0  0
 28 29  1  1  0  0  0
 28 30  1  0  0  0  0
 30 31  1  6  0  0  0
 30 32  1  0  0  0  0
 32 33  1  1  0  0  0
 34 33  1  1  0  0  0
 34 43  1  0  0  0  0
 34 35  1  0  0  0  0
 35 36  2  0  0  0  0
 36 37  1  0  0  0  0
 37 38  1  0  0  0  0
 36 39  1  0  0  0  0
 39 40  1  1  0  0  0
 39 41  1  0  0  0  0
 41 42  1  6  0  0  0
 41 43  1  0  0  0  0
 43 44  1  1  0  0  0
M  END
>  <Name>
Acarbose

>  <CAS #>
56180-94-0

>  <human Clearance (mL/min/kg)>
2.2

>  <Primary mechanism (metabolic, biliary or renal)>
renal

>  <seqId>
9.0

>  <Code (mechanism and clearance degree index)>
R1

>  < Five M1 and R1 test groups>
R1_3

>  <formamide>
0

>  <prodrug phosphates>
0

>  <VolSurf_V>
1143.38

>  <VolSurf_S>
764.99

>  <VolSurf_R>
1.49463

>  <VolSurf_G>
1.74008

>  <VolSurf_IW1>
0.0244723

>  <VolSurf_IW2>
0.0388207

>  <VolSurf_IW3>
0.0789771

>  <VolSurf_IW4>
0.15972

>  <VolSurf_ID1>
0.0485057

>  <VolSurf_ID2>
0.147226

>  <VolSurf_ID3>
0.0

>  <VolSurf_ID4>
0.0

>  <VolSurf_HL1>
358.0

>  <VolSurf_HL2>
544.25

>  <VolSurf_A>
7.54868

>  <VolSurf_CP>
0.00257827

>  <VolSurf_POL>
56.1101

>  <VolSurf_MW>
645.605

>  <VolSurf_FLEX>
3.10018

>  <VolSurf_FLEX_RB>
0.114822

>  <VolSurf_NCC>
0.0

>  <VolSurf_LOGP n-Oct>
-9.0

>  <VolSurf_LOGP c-Hex>
-9.0

>  <VolSurf_PSA>
342.21

>  <VolSurf_HSA>
422.78

>  <VolSurf_PSAR>
0.447339

>  <VolSurf_PHSAR>
0.809429

>  <VolSurf_LgD5>
-9.0

>  <VolSurf_LgD6>
-9.0

>  <VolSurf_LgD7>
-9.0

>  <VolSurf_LgD7.5>
-9.0

>  <VolSurf_LgD8>
-9.0

>  <VolSurf_LgD9>
-9.0

>  <VolSurf_LgD10>
-9.0

>  <VolSurf_AUS7.4>
1.89913

>  <VolSurf_%FU4>
0.146012

>  <VolSurf_%FU5>
1.44118

>  <VolSurf_%FU6>
12.7571

>  <VolSurf_%FU7>
59.3809

>  <VolSurf_%FU8>
93.4512

>  <VolSurf_%FU9>
97.6789

>  <VolSurf_%FU10>
85.2633

>  <ID>
3

>  <MOKAID>
4

>  <Clearance Route>
renal

>  <PC1>
-9.598310000000001

>  <PC2>
-1.5918700000000001

$$$$
Acebutolol
  -OEChem-08301611272D

 24 24  0     1  0  0  0  0  0999 V2000
   -5.1991    1.9899    0.0000 C   0  0  0  0  0  0  0  0  0  0  0  0
   -4.3316    1.4925    0.0000 C   0  0  0  0  0  0  0  0  0  0  0  0
   -3.4670    1.9950    0.0000 C   0  0  0  0  0  0  0  0  0  0  0  0
   -2.5995    1.4976    0.0000 C   0  0  0  0  0  0  0  0  0  0  0  0
   -2.5966    0.4976    0.0000 O   0  0  0  0  0  0  0  0  0  0  0  0
   -1.7350    2.0001    0.0000 N   0  0  0  0  0  0  0  0  0  0  0  0
   -0.8675    1.5027    0.0000 C   0  0  0  0  0  0  0  0  0  0  0  0
   -0.8675    0.4975    0.0000 C   0  0  0  0  0  0  0  0  0  0  0  0
    0.0000    0.0000    0.0000 C   0  0  0  0  0  0  0  0  0  0  0  0
    0.8675    0.4975    0.0000 C   0  0  0  0  0  0  0  0  0  0  0  0
    1.7328   -0.0038    0.0000 O   0  0  0  0  0  0  0  0  0  0  0  0
    2.5995    0.4950    0.0000 C   0  0  0  0  0  0  0  0  0  0  0  0
    3.4648   -0.0063    0.0000 C   0  0  3  0  0  0  0  0  0  0  0  0
    3.4634   -1.0063    0.0000 O   0  0  0  0  0  0  0  0  0  0  0  0
    4.3316    0.4925    0.0000 C   0  0  0  0  0  0  0  0  0  0  0  0
    5.1969   -0.0088    0.0000 N   0  0  0  0  0  0  0  0  0  0  0  0
    6.0636    0.4900    0.0000 C   0  0  0  0  0  0  0  0  0  0  0  0
    6.0651    1.4900    0.0000 C   0  0  0  0  0  0  0  0  0  0  0  0
    6.9289   -0.0113    0.0000 C   0  0  0  0  0  0  0  0  0  0  0  0
    0.8675    1.5027    0.0000 C   0  0  0  0  0  0  0  0  0  0  0  0
   -0.0000    2.0104    0.0000 C   0  0  0  0  0  0  0  0  0  0  0  0
    1.7350    2.0001    0.0000 C   0  0  0  0  0  0  0  0  0  0  0  0
    2.5995    1.4976    0.0000 O   0  0  0  0  0  0  0  0  0  0  0  0
    1.7379    3.0001    0.0000 C   0  0  0  0  0  0  0  0  0  0  0  0
  1  2  1  0  0  0  0
  2  3  1  0  0  0  0
  3  4  1  0  0  0  0
  4  5  2  0  0  0  0
  4  6  1  0  0  0  0
  6  7  1  0  0  0  0
  7 21  2  0  0  0  0
  7  8  1  0  0  0  0
  8  9  2  0  0  0  0
  9 10  1  0  0  0  0
 10 11  1  0  0  0  0
 11 12  1  0  0  0  0
 12 13  1  0  0  0  0
 13 14  1  0  0  0  0
 13 15  1  0  0  0  0
 15 16  1  0  0  0  0
 16 17  1  0  0  0  0
 17 18  1  0  0  0  0
 17 19  1  0  0  0  0
 10 20  2  0  0  0  0
 20 21  1  0  0  0  0
 20 22  1  0  0  0  0
 22 23  2  0  0  0  0
 22 24  1  0  0  0  0
M  END
>  <Name>
Acebutolol

>  <CAS #>
37517-30-9

>  <human Clearance (mL/min/kg)>
10.0

>  <Primary mechanism (metabolic, biliary or renal)>
metabolic

>  <seqId>
10.0

>  <Code (mechanism and clearance degree index)>
M1

>  < Five M1 and R1 test groups>
M1_1

>  <formamide>
0

>  <prodrug phosphates>
0

>  <VolSurf_V>
829.5

>  <VolSurf_S>
585.146

>  <VolSurf_R>
1.41759

>  <VolSurf_G>
1.60455

>  <VolSurf_IW1>
0.0728855

>  <VolSurf_IW2>
0.217373

>  <VolSurf_IW3>
0.48258

>  <VolSurf_IW4>
0.784286

>  <VolSurf_ID1>
0.0308312

>  <VolSurf_ID2>
0.0781067

>  <VolSurf_ID3>
0.132566

>  <VolSurf_ID4>
0.129141

>  <VolSurf_HL1>
2.51771

>  <VolSurf_HL2>
2.46602

>  <VolSurf_A>
3.84368

>  <VolSurf_CP>
0.770918

>  <VolSurf_POL>
39.069

>  <VolSurf_MW>
337.434

>  <VolSurf_FLEX>
2.09382

>  <VolSurf_FLEX_RB>
0.139588

>  <VolSurf_NCC>
1.0

>  <VolSurf_LOGP n-Oct>
1.559

>  <VolSurf_LOGP c-Hex>
-0.419

>  <VolSurf_PSA>
101.41

>  <VolSurf_HSA>
483.736

>  <VolSurf_PSAR>
0.173307

>  <VolSurf_PHSAR>
0.209639

>  <VolSurf_LgD5>
-1.81633

>  <VolSurf_LgD6>
-1.43868

>  <VolSurf_LgD7>
-0.60799

>  <VolSurf_LgD7.5>
-0.129738

>  <VolSurf_LgD8>
0.346665

>  <VolSurf_LgD9>
1.15449

>  <VolSurf_LgD10>
1.49684

>  <VolSurf_AUS7.4>
0.362752

>  <VolSurf_%FU4>
6.49557E-4

>  <VolSurf_%FU5>
0.00649519

>  <VolSurf_%FU6>
0.064914

>  <VolSurf_%FU7>
0.645369

>  <VolSurf_%FU8>
6.09942

>  <VolSurf_%FU9>
39.3778

>  <VolSurf_%FU10>
86.6587

>  <ID>
4

>  <MOKAID>
5

>  <Clearance Route>
possible billary

>  <PC1>
-0.0865361

>  <PC2>
-0.887582

$$$$
Acecainide (N-acetylprocainamide)
  -OEChem-08301611272D

 20 20  0     0  0  0  0  0  0999 V2000
    4.3463    6.4925    0.0000 C   0  0  0  0  0  0  0  0  0  0  0  0
    3.4788    5.9950    0.0000 C   0  0  0  0  0  0  0  0  0  0  0  0
    3.4759    4.9950    0.0000 N   0  0  0  0  0  0  0  0  0  0  0  0
    4.3404    4.4925    0.0000 C   0  0  0  0  0  0  0  0  0  0  0  0
    5.2079    4.9899    0.0000 C   0  0  0  0  0  0  0  0  0  0  0  0
    2.6084    4.4976    0.0000 C   0  0  0  0  0  0  0  0  0  0  0  0
    2.6054    3.4976    0.0000 C   0  0  0  0  0  0  0  0  0  0  0  0
    1.7379    3.0001    0.0000 N   0  0  0  0  0  0  0  0  0  0  0  0
    1.7350    2.0001    0.0000 C   0  0  0  0  0  0  0  0  0  0  0  0
    2.5995    1.4976    0.0000 O   0  0  0  0  0  0  0  0  0  0  0  0
    0.8675    1.5027    0.0000 C   0  0  0  0  0  0  0  0  0  0  0  0
    0.8675    0.4975    0.0000 C   0  0  0  0  0  0  0  0  0  0  0  0
    0.0000    0.0000    0.0000 C   0  0  0  0  0  0  0  0  0  0  0  0
   -0.8675    0.4975    0.0000 C   0  0  0  0  0  0  0  0  0  0  0  0
   -1.7328   -0.0038    0.0000 N   0  0  0  0  0  0  0  0  0  0  0  0
   -1.7313   -1.0038    0.0000 C   0  0  0  0  0  0  0  0  0  0  0  0
   -0.8646   -1.5025    0.0000 O   0  0  0  0  0  0  0  0  0  0  0  0
   -2.5966   -1.5050    0.0000 C   0  0  0  0  0  0  0  0  0  0  0  0
   -0.8675    1.5027    0.0000 C   0  0  0  0  0  0  0  0  0  0  0  0
    0.0000    2.0104    0.0000 C   0  0  0  0  0  0  0  0  0  0  0  0
  1  2  1  0  0  0  0
  2  3  1  0  0  0  0
  3  4  1  0  0  0  0
  4  5  1  0  0  0  0
  3  6  1  0  0  0  0
  6  7  1  0  0  0  0
  7  8  1  0  0  0  0
  8  9  1  0  0  0  0
  9 10  2  0  0  0  0
  9 11  1  0  0  0  0
 11 20  2  0  0  0  0
 11 12  1  0  0  0  0
 12 13  2  0  0  0  0
 13 14  1  0  0  0  0
 14 15  1  0  0  0  0
 15 16  1  0  0  0  0
 16 17  2  0  0  0  0
 16 18  1  0  0  0  0
 14 19  2  0  0  0  0
 19 20  1  0  0  0  0
M  END
>  <Name>
Acecainide (N-acetylprocainamide)

>  <CAS #>
32795-44-1

>  <human Clearance (mL/min/kg)>
4.0

>  <Primary mechanism (metabolic, biliary or renal)>
renal

>  <seqId>
11.0

>  <Code (mechanism and clearance degree index)>
R1

>  < Five M1 and R1 test groups>
R1_1

>  <formamide>
0

>  <prodrug phosphates>
0

>  <VolSurf_V>
710.25

>  <VolSurf_S>
504.244

>  <VolSurf_R>
1.40854

>  <VolSurf_G>
1.49908

>  <VolSurf_IW1>
0.107438

>  <VolSurf_IW2>
0.312687

>  <VolSurf_IW3>
0.73372

>  <VolSurf_IW4>
1.14251

>  <VolSurf_ID1>
0.0252861

>  <VolSurf_ID2>
0.0768007

>  <VolSurf_ID3>
0.109012

>  <VolSurf_ID4>
0.145247

>  <VolSurf_HL1>
1.57357

>  <VolSurf_HL2>
1.04029

>  <VolSurf_A>
3.38475

>  <VolSurf_CP>
1.38969

>  <VolSurf_POL>
32.767

>  <VolSurf_MW>
278.37

>  <VolSurf_FLEX>
1.65544

>  <VolSurf_FLEX_RB>
0.150494

>  <VolSurf_NCC>
1.0

>  <VolSurf_LOGP n-Oct>
1.289

>  <VolSurf_LOGP c-Hex>
-2.644

>  <VolSurf_PSA>
69.61

>  <VolSurf_HSA>
434.634

>  <VolSurf_PSAR>
0.138048

>  <VolSurf_PHSAR>
0.160158

>  <VolSurf_LgD5>
-2.57968

>  <VolSurf_LgD6>
-1.6344

>  <VolSurf_LgD7>
-0.64479

>  <VolSurf_LgD7.5>
-0.156021

>  <VolSurf_LgD8>
0.311392

>  <VolSurf_LgD9>
1.02179

>  <VolSurf_LgD10>
1.2524

>  <VolSurf_AUS7.4>
0.552754

>  <VolSurf_%FU4>
0.00117661

>  <VolSurf_%FU5>
0.0117649

>  <VolSurf_%FU6>
0.117524

>  <VolSurf_%FU7>
1.16294

>  <VolSurf_%FU8>
10.5275

>  <VolSurf_%FU9>
54.0487

>  <VolSurf_%FU10>
91.9173

>  <ID>
5

>  <MOKAID>
6

>  <Clearance Route>
uncertain

>  <PC1>
0.427563

>  <PC2>
0.784022

$$$$
Acenocoumarol
  -OEChem-08301611272D

 26 28  0     1  0  0  0  0  0999 V2000
    2.5999   -1.5032    0.0000 O   0  0  0  0  0  0  0  0  0  0  0  0
    2.6026   -0.5032    0.0000 C   0  0  0  0  0  0  0  0  0  0  0  0
    3.4761   -0.0036    0.0000 C   0  0  0  0  0  0  0  0  0  0  0  0
    3.4774    1.0034    0.0000 C   0  0  0  0  0  0  0  0  0  0  0  0
    4.3446    1.5014    0.0000 O   0  0  0  0  0  0  0  0  0  0  0  0
    2.6052    1.5109    0.0000 O   0  0  0  0  0  0  0  0  0  0  0  0
    1.7374    1.0057    0.0000 C   0  0  0  0  0  0  0  0  0  0  0  0
    0.8680    1.5138    0.0000 C   0  0  0  0  0  0  0  0  0  0  0  0
    0.0000    1.0057    0.0000 C   0  0  0  0  0  0  0  0  0  0  0  0
    0.0000    0.0000    0.0000 C   0  0  0  0  0  0  0  0  0  0  0  0
    0.8680   -0.4978    0.0000 C   0  0  0  0  0  0  0  0  0  0  0  0
    1.7360   -0.0012    0.0000 C   0  0  0  0  0  0  0  0  0  0  0  0
    4.3408   -0.5059    0.0000 C   0  0  2  0  0  0  0  0  0  0  0  0
    5.2081   -0.0082    0.0000 C   0  0  0  0  0  0  0  0  0  0  0  0
    6.0728   -0.5105    0.0000 C   0  0  0  0  0  0  0  0  0  0  0  0
    6.9402   -0.0129    0.0000 C   0  0  0  0  0  0  0  0  0  0  0  0
    6.0702   -1.5105    0.0000 O   0  0  0  0  0  0  0  0  0  0  0  0
    4.3381   -1.5059    0.0000 C   0  0  0  0  0  0  0  0  0  0  0  0
    5.2088   -2.0083    0.0000 C   0  0  0  0  0  0  0  0  0  0  0  0
    5.2062   -3.0083    0.0000 C   0  0  0  0  0  0  0  0  0  0  0  0
    4.3417   -3.5111    0.0000 C   0  0  0  0  0  0  0  0  0  0  0  0
    3.4710   -3.0087    0.0000 C   0  0  0  0  0  0  0  0  0  0  0  0
    3.4648   -2.0036    0.0000 C   0  0  0  0  0  0  0  0  0  0  0  0
    4.3434   -4.5111    0.0000 N   0  3  0  0  0  0  0  0  0  0  0  0
    5.2103   -5.0096    0.0000 O   0  5  0  0  0  0  0  0  0  0  0  0
    3.4783   -5.0126    0.0000 O   0  0  0  0  0  0  0  0  0  0  0  0
  1  2  1  0  0  0  0
  2 12  1  0  0  0  0
  2  3  2  0  0  0  0
  3  4  1  0  0  0  0
  4  5  2  0  0  0  0
  4  6  1  0  0  0  0
  6  7  1  0  0  0  0
  7 12  2  0  0  0  0
  7  8  1  0  0  0  0
  8  9  2  0  0  0  0
  9 10  1  0  0  0  0
 10 11  2  0  0  0  0
 11 12  1  0  0  0  0
  3 13  1  0  0  0  0
 13 14  1  6  0  0  0
 14 15  1  0  0  0  0
 15 16  1  0  0  0  0
 15 17  2  0  0  0  0
 13 18  1  0  0  0  0
 18 23  2  0  0  0  0
 18 19  1  0  0  0  0
 19 20  2  0  0  0  0
 20 21  1  0  0  0  0
 21 22  2  0  0  0  0
 22 23  1  0  0  0  0
 21 24  1  0  0  0  0
 24 25  1  0  0  0  0
 24 26  2  0  0  0  0
M  CHG  2  24   1  25  -1
M  END
>  <Name>
Acenocoumarol

>  <CAS #>
152-72-7

>  <human Clearance (mL/min/kg)>
1.28

>  <Primary mechanism (metabolic, biliary or renal)>
metabolic

>  <seqId>
12.0

>  <Code (mechanism and clearance degree index)>
M1

>  < Five M1 and R1 test groups>
M1_2

>  <formamide>
0

>  <prodrug phosphates>
0

>  <VolSurf_V>
748.75

>  <VolSurf_S>
507.347

>  <VolSurf_R>
1.47581

>  <VolSurf_G>
1.43514

>  <VolSurf_IW1>
0.0705096

>  <VolSurf_IW2>
0.182149

>  <VolSurf_IW3>
0.546306

>  <VolSurf_IW4>
0.878391

>  <VolSurf_ID1>
0.0562097

>  <VolSurf_ID2>
0.0674544

>  <VolSurf_ID3>
0.111016

>  <VolSurf_ID4>
0.0

>  <VolSurf_HL1>
5.17308

>  <VolSurf_HL2>
4.43182

>  <VolSurf_A>
4.52133

>  <VolSurf_CP>
0.420707

>  <VolSurf_POL>
34.781

>  <VolSurf_MW>
352.317

>  <VolSurf_FLEX>
1.28832

>  <VolSurf_FLEX_RB>
0.214719

>  <VolSurf_NCC>
1.0

>  <VolSurf_LOGP n-Oct>
2.536

>  <VolSurf_LOGP c-Hex>
1.163

>  <VolSurf_PSA>
103.58

>  <VolSurf_HSA>
403.767

>  <VolSurf_PSAR>
0.20416

>  <VolSurf_PHSAR>
0.256534

>  <VolSurf_LgD5>
2.21693

>  <VolSurf_LgD6>
1.46357

>  <VolSurf_LgD7>
0.511031

>  <VolSurf_LgD7.5>
0.0438487

>  <VolSurf_LgD8>
-0.371879

>  <VolSurf_LgD9>
-0.85301

>  <VolSurf_LgD10>
-0.951534

>  <VolSurf_AUS7.4>
0.0275117

>  <VolSurf_%FU4>
90.2076

>  <VolSurf_%FU5>
47.9493

>  <VolSurf_%FU6>
8.435

>  <VolSurf_%FU7>
0.912795

>  <VolSurf_%FU8>
0.0920355

>  <VolSurf_%FU9>
0.00921118

>  <VolSurf_%FU10>
9.21195E-4

>  <ID>
6

>  <MOKAID>
7

>  <Clearance Route>
uncertain

>  <PC1>
0.30548400000000003

>  <PC2>
0.586549

$$$$
Acetaminophen
  -OEChem-08301611272D

 11 11  0     0  0  0  0  0  0999 V2000
    2.6054    3.4976    0.0000 C   0  0  0  0  0  0  0  0  0  0  0  0
    1.7379    3.0001    0.0000 C   0  0  0  0  0  0  0  0  0  0  0  0
    0.8734    3.5027    0.0000 O   0  0  0  0  0  0  0  0  0  0  0  0
    1.7350    2.0001    0.0000 N   0  0  0  0  0  0  0  0  0  0  0  0
    0.8675    1.5027    0.0000 C   0  0  0  0  0  0  0  0  0  0  0  0
    0.8675    0.4975    0.0000 C   0  0  0  0  0  0  0  0  0  0  0  0
    0.0000    0.0000    0.0000 C   0  0  0  0  0  0  0  0  0  0  0  0
   -0.8675    0.4975    0.0000 C   0  0  0  0  0  0  0  0  0  0  0  0
   -1.7328   -0.0038    0.0000 O   0  0  0  0  0  0  0  0  0  0  0  0
   -0.8675    1.5027    0.0000 C   0  0  0  0  0  0  0  0  0  0  0  0
    0.0000    2.0104    0.0000 C   0  0  0  0  0  0  0  0  0  0  0  0
  1  2  1  0  0  0  0
  2  3  2  0  0  0  0
  2  4  1  0  0  0  0
  4  5  1  0  0  0  0
  5 11  2  0  0  0  0
  5  6  1  0  0  0  0
  6  7  2  0  0  0  0
  7  8  1  0  0  0  0
  8  9  1  0  0  0  0
  8 10  2  0  0  0  0
 10 11  1  0  0  0  0
M  END
>  <Name>
Acetaminophen

>  <CAS #>
103-90-2

>  <human Clearance (mL/min/kg)>
5.0

>  <Primary mechanism (metabolic, biliary or renal)>
metabolic

>  <seqId>
13.0

>  <Code (mechanism and clearance degree index)>
M1

>  < Five M1 and R1 test groups>
M1_5

>  <formamide>
0

>  <prodrug phosphates>
0

>  <VolSurf_V>
372.75

>  <VolSurf_S>
277.157

>  <VolSurf_R>
1.3449

>  <VolSurf_G>
1.16398

>  <VolSurf_IW1>
0.108354

>  <VolSurf_IW2>
0.336536

>  <VolSurf_IW3>
0.943167

>  <VolSurf_IW4>
2.236

>  <VolSurf_ID1>
0.0186349

>  <VolSurf_ID2>
0.0345073

>  <VolSurf_ID3>
0.0377904

>  <VolSurf_ID4>
0.107215

>  <VolSurf_HL1>
1.76761

>  <VolSurf_HL2>
1.49091

>  <VolSurf_A>
2.60354

>  <VolSurf_CP>
4.6643

>  <VolSurf_POL>
16.013

>  <VolSurf_MW>
151.163

>  <VolSurf_FLEX>
0.176637

>  <VolSurf_FLEX_RB>
0.0588791

>  <VolSurf_NCC>
0.0

>  <VolSurf_LOGP n-Oct>
0.761

>  <VolSurf_LOGP c-Hex>
-3.134

>  <VolSurf_PSA>
49.33

>  <VolSurf_HSA>
227.827

>  <VolSurf_PSAR>
0.177986

>  <VolSurf_PHSAR>
0.216524

>  <VolSurf_LgD5>
0.760992

>  <VolSurf_LgD6>
0.760917

>  <VolSurf_LgD7>
0.760173

>  <VolSurf_LgD7.5>
0.758391

>  <VolSurf_LgD8>
0.752805

>  <VolSurf_LgD9>
0.685643

>  <VolSurf_LgD10>
0.313878

>  <VolSurf_AUS7.4>
2.0

>  <VolSurf_%FU4>
99.9998

>  <VolSurf_%FU5>
99.998

>  <VolSurf_%FU6>
99.9804

>  <VolSurf_%FU7>
99.8039

>  <VolSurf_%FU8>
98.0728

>  <VolSurf_%FU9>
83.5767

>  <VolSurf_%FU10>
33.7251

>  <ID>
7

>  <MOKAID>
8

>  <Clearance Route>
metabolic

>  <PC1>
2.8256200000000002

>  <PC2>
3.91741

$$$$
Acetazolamide
  -OEChem-08301611272D

 13 13  0     0  0  0  0  0  0999 V2000
    2.1123    1.5932    0.0000 C   0  0  0  0  0  0  0  0  0  0  0  0
    1.1608    1.2855    0.0000 C   0  0  0  0  0  0  0  0  0  0  0  0
    0.4186    1.9557    0.0000 O   0  0  0  0  0  0  0  0  0  0  0  0
    0.9515    0.3077    0.0000 N   0  0  0  0  0  0  0  0  0  0  0  0
    0.0000    0.0000    0.0000 C   0  0  0  0  0  0  0  0  0  0  0  0
   -0.3118   -0.9518    0.0000 N   0  0  0  0  0  0  0  0  0  0  0  0
   -1.3133   -0.9518    0.0000 N   0  0  0  0  0  0  0  0  0  0  0  0
   -1.6198   -0.0000    0.0000 C   0  0  0  0  0  0  0  0  0  0  0  0
   -0.8125    0.5908    0.0000 S   0  0  0  0  0  0  0  0  0  0  0  0
   -2.5710    0.3086    0.0000 S   0  0  0  0  0  0  0  0  0  0  0  0
   -2.8796   -0.6426    0.0000 O   0  0  0  0  0  0  0  0  0  0  0  0
   -2.2624    1.2598    0.0000 O   0  0  0  0  0  0  0  0  0  0  0  0
   -3.5222    0.6173    0.0000 N   0  0  0  0  0  0  0  0  0  0  0  0
  1  2  1  0  0  0  0
  2  3  2  0  0  0  0
  2  4  1  0  0  0  0
  4  5  1  0  0  0  0
  5  9  1  0  0  0  0
  5  6  2  0  0  0  0
  6  7  1  0  0  0  0
  7  8  2  0  0  0  0
  8  9  1  0  0  0  0
  8 10  1  0  0  0  0
 10 11  2  0  0  0  0
 10 12  2  0  0  0  0
 10 13  1  0  0  0  0
M  END
>  <Name>
Acetazolamide

>  <CAS #>
59-66-5

>  <human Clearance (mL/min/kg)>
0.65

>  <Primary mechanism (metabolic, biliary or renal)>
renal

>  <seqId>
14.0

>  <Code (mechanism and clearance degree index)>
R1

>  < Five M1 and R1 test groups>
R1_4

>  <formamide>
0

>  <prodrug phosphates>
0

>  <VolSurf_V>
408.125

>  <VolSurf_S>
313.767

>  <VolSurf_R>
1.30073

>  <VolSurf_G>
1.28054

>  <VolSurf_IW1>
0.0960437

>  <VolSurf_IW2>
0.169688

>  <VolSurf_IW3>
0.547795

>  <VolSurf_IW4>
1.28326

>  <VolSurf_ID1>
0.0983982

>  <VolSurf_ID2>
0.170707

>  <VolSurf_ID3>
0.252361

>  <VolSurf_ID4>
0.416145

>  <VolSurf_HL1>
6.8494

>  <VolSurf_HL2>
4.16522

>  <VolSurf_A>
1.91396

>  <VolSurf_CP>
0.32128

>  <VolSurf_POL>
18.931

>  <VolSurf_MW>
222.245

>  <VolSurf_FLEX>
0.377579

>  <VolSurf_FLEX_RB>
0.0943948

>  <VolSurf_NCC>
0.0

>  <VolSurf_LOGP n-Oct>
-1.488

>  <VolSurf_LOGP c-Hex>
-3.078

>  <VolSurf_PSA>
134.312

>  <VolSurf_HSA>
179.455

>  <VolSurf_PSAR>
0.428064

>  <VolSurf_PHSAR>
0.748448

>  <VolSurf_LgD5>
-1.48847

>  <VolSurf_LgD6>
-1.49229

>  <VolSurf_LgD7>
-1.52925

>  <VolSurf_LgD7.5>
-1.60828

>  <VolSurf_LgD8>
-1.79968

>  <VolSurf_LgD9>
-2.7138

>  <VolSurf_LgD10>
-4.31619

>  <VolSurf_AUS7.4>
1.90598

>  <VolSurf_%FU4>
99.9005

>  <VolSurf_%FU5>
99.8921

>  <VolSurf_%FU6>
99.0176

>  <VolSurf_%FU7>
90.9369

>  <VolSurf_%FU8>
48.773

>  <VolSurf_%FU9>
5.92691

>  <VolSurf_%FU10>
0.143549

>  <ID>
8

>  <MOKAID>
9

>  <Clearance Route>
uncertain

>  <PC1>
-1.9171799999999999

>  <PC2>
3.8429

$$$$
Acetylmethadol, L-
  -OEChem-08301611272D

 26 27  0     1  0  0  0  0  0999 V2000
    4.3805    0.6353    0.0000 C   0  0  0  0  0  0  0  0  0  0  0  0
    3.8831    1.5028    0.0000 C   0  0  0  0  0  0  0  0  0  0  0  0
    2.8831    1.5057    0.0000 C   0  0  2  0  0  0  0  0  0  0  0  0
    2.3805    0.6412    0.0000 O   0  0  0  0  0  0  0  0  0  0  0  0
    2.8780   -0.2263    0.0000 C   0  0  0  0  0  0  0  0  0  0  0  0
    3.8779   -0.2293    0.0000 O   0  0  0  0  0  0  0  0  0  0  0  0
    2.3754   -1.0909    0.0000 C   0  0  0  0  0  0  0  0  0  0  0  0
    2.3856    2.3732    0.0000 C   0  0  0  0  0  0  0  0  0  0  0  0
    1.8882    3.2407    0.0000 C   0  0  0  0  0  0  0  0  0  0  0  0
    0.8882    3.2437    0.0000 C   0  0  2  0  0  0  0  0  0  0  0  0
    0.3856    2.3791    0.0000 C   0  0  0  0  0  0  0  0  0  0  0  0
    0.3907    4.1112    0.0000 N   0  0  0  0  0  0  0  0  0  0  0  0
   -0.6093    4.1141    0.0000 C   0  0  0  0  0  0  0  0  0  0  0  0
    0.8933    4.9757    0.0000 C   0  0  0  0  0  0  0  0  0  0  0  0
    0.8675    1.5027    0.0000 C   0  0  0  0  0  0  0  0  0  0  0  0
    0.8675    0.4975    0.0000 C   0  0  0  0  0  0  0  0  0  0  0  0
    0.0000    0.0000    0.0000 C   0  0  0  0  0  0  0  0  0  0  0  0
   -0.8675    0.4975    0.0000 C   0  0  0  0  0  0  0  0  0  0  0  0
   -0.8675    1.5027    0.0000 C   0  0  0  0  0  0  0  0  0  0  0  0
    0.0000    2.0104    0.0000 C   0  0  0  0  0  0  0  0  0  0  0  0
    3.9037    3.2437    0.0000 C   0  0  0  0  0  0  0  0  0  0  0  0
    3.9037    4.2489    0.0000 C   0  0  0  0  0  0  0  0  0  0  0  0
    4.7712    4.7464    0.0000 C   0  0  0  0  0  0  0  0  0  0  0  0
    5.6387    4.2489    0.0000 C   0  0  0  0  0  0  0  0  0  0  0  0
    5.6387    3.2437    0.0000 C   0  0  0  0  0  0  0  0  0  0  0  0
    4.7712    2.7360    0.0000 C   0  0  0  0  0  0  0  0  0  0  0  0
  1  2  1  0  0  0  0
  3  2  1  6  0  0  0
  3  4  1  0  0  0  0
  4  5  1  0  0  0  0
  5  6  2  0  0  0  0
  5  7  1  0  0  0  0
  3  8  1  0  0  0  0
  8  9  1  0  0  0  0
  9 10  1  0  0  0  0
 10 11  1  6  0  0  0
 10 12  1  0  0  0  0
 12 13  1  0  0  0  0
 12 14  1  0  0  0  0
  8 15  1  0  0  0  0
 15 20  2  0  0  0  0
 15 16  1  0  0  0  0
 16 17  2  0  0  0  0
 17 18  1  0  0  0  0
 18 19  2  0  0  0  0
 19 20  1  0  0  0  0
  8 21  1  0  0  0  0
 21 26  2  0  0  0  0
 21 22  1  0  0  0  0
 22 23  2  0  0  0  0
 23 24  1  0  0  0  0
 24 25  2  0  0  0  0
 25 26  1  0  0  0  0
M  END
>  <Name>
Acetylmethadol, L-

>  <CAS #>
1477-40-3

>  <human Clearance (mL/min/kg)>
5.4

>  <Primary mechanism (metabolic, biliary or renal)>
metabolic

>  <seqId>
16.0

>  <Code (mechanism and clearance degree index)>
M1

>  < Five M1 and R1 test groups>
M1_1

>  <formamide>
0

>  <prodrug phosphates>
0

>  <VolSurf_V>
857.625

>  <VolSurf_S>
534.875

>  <VolSurf_R>
1.60341

>  <VolSurf_G>
1.3563

>  <VolSurf_IW1>
0.0591089

>  <VolSurf_IW2>
0.426016

>  <VolSurf_IW3>
0.955505

>  <VolSurf_IW4>
1.24997

>  <VolSurf_ID1>
0.0308235

>  <VolSurf_ID2>
0.076051

>  <VolSurf_ID3>
0.15302

>  <VolSurf_ID4>
0.292506

>  <VolSurf_HL1>
0.690244

>  <VolSurf_HL2>
0.742424

>  <VolSurf_A>
7.98925

>  <VolSurf_CP>
1.75817

>  <VolSurf_POL>
44.276

>  <VolSurf_MW>
354.505

>  <VolSurf_FLEX>
1.88407

>  <VolSurf_FLEX_RB>
0.134577

>  <VolSurf_NCC>
1.0

>  <VolSurf_LOGP n-Oct>
4.542

>  <VolSurf_LOGP c-Hex>
5.401

>  <VolSurf_PSA>
37.71

>  <VolSurf_HSA>
497.165

>  <VolSurf_PSAR>
0.0705024

>  <VolSurf_PHSAR>
0.07585

>  <VolSurf_LgD5>
1.25129

>  <VolSurf_LgD6>
1.89816

>  <VolSurf_LgD7>
2.83255

>  <VolSurf_LgD7.5>
3.31013

>  <VolSurf_LgD8>
3.75703

>  <VolSurf_LgD9>
4.36295

>  <VolSurf_LgD10>
4.52038

>  <VolSurf_AUS7.4>
0.731576

>  <VolSurf_%FU4>
0.00195889

>  <VolSurf_%FU5>
0.0195855

>  <VolSurf_%FU6>
0.19551

>  <VolSurf_%FU7>
1.92129

>  <VolSurf_%FU8>
16.3805

>  <VolSurf_%FU9>
66.204

>  <VolSurf_%FU10>
95.1431

>  <ID>
9

>  <MOKAID>
10

>  <Clearance Route>
metabolic

>  <PC1>
3.41183

>  <PC2>
-1.18035

$$$$
Acetylsalicylic Acid
  -OEChem-08301611272D

 13 13  0     0  0  0  0  0  0999 V2000
    3.4641   -2.0025    0.0000 C   0  0  0  0  0  0  0  0  0  0  0  0
    2.5988   -1.5013    0.0000 C   0  0  0  0  0  0  0  0  0  0  0  0
    1.7321   -2.0000    0.0000 O   0  0  0  0  0  0  0  0  0  0  0  0
    2.6003   -0.5013    0.0000 O   0  0  0  0  0  0  0  0  0  0  0  0
    1.7350    0.0000    0.0000 C   0  0  0  0  0  0  0  0  0  0  0  0
    0.8675   -0.4975    0.0000 C   0  0  0  0  0  0  0  0  0  0  0  0
    0.0000    0.0000    0.0000 C   0  0  0  0  0  0  0  0  0  0  0  0
   -0.0000    1.0052    0.0000 C   0  0  0  0  0  0  0  0  0  0  0  0
    0.8675    1.5129    0.0000 C   0  0  0  0  0  0  0  0  0  0  0  0
    1.7350    1.0052    0.0000 C   0  0  0  0  0  0  0  0  0  0  0  0
    2.6025    1.5026    0.0000 C   0  0  0  0  0  0  0  0  0  0  0  0
    3.4670    1.0001    0.0000 O   0  0  0  0  0  0  0  0  0  0  0  0
    2.6054    2.5026    0.0000 O   0  0  0  0  0  0  0  0  0  0  0  0
  1  2  1  0  0  0  0
  2  3  2  0  0  0  0
  2  4  1  0  0  0  0
  4  5  1  0  0  0  0
  5 10  2  0  0  0  0
  5  6  1  0  0  0  0
  6  7  2  0  0  0  0
  7  8  1  0  0  0  0
  8  9  2  0  0  0  0
  9 10  1  0  0  0  0
 10 11  1  0  0  0  0
 11 12  2  0  0  0  0
 11 13  1  0  0  0  0
M  END
>  <Name>
Acetylsalicylic Acid

>  <CAS #>
50-78-2

>  <human Clearance (mL/min/kg)>
12.0

>  <Primary mechanism (metabolic, biliary or renal)>
metabolic

>  <seqId>
17.0

>  <Code (mechanism and clearance degree index)>
M1

>  < Five M1 and R1 test groups>
M1_2

>  <formamide>
0

>  <prodrug phosphates>
0

>  <VolSurf_V>
413.625

>  <VolSurf_S>
306.187

>  <VolSurf_R>
1.35089

>  <VolSurf_G>
1.218

>  <VolSurf_IW1>
0.165129

>  <VolSurf_IW2>
0.357611

>  <VolSurf_IW3>
0.795016

>  <VolSurf_IW4>
1.21463

>  <VolSurf_ID1>
0.0987284

>  <VolSurf_ID2>
0.254274

>  <VolSurf_ID3>
0.35679

>  <VolSurf_ID4>
0.0

>  <VolSurf_HL1>
15.7925

>  <VolSurf_HL2>
18.48

>  <VolSurf_A>
5.70703

>  <VolSurf_CP>
0.0661618

>  <VolSurf_POL>
15.878

>  <VolSurf_MW>
179.149

>  <VolSurf_FLEX>
0.780343

>  <VolSurf_FLEX_RB>
0.195086

>  <VolSurf_NCC>
1.0

>  <VolSurf_LOGP n-Oct>
1.559

>  <VolSurf_LOGP c-Hex>
-0.966

>  <VolSurf_PSA>
72.42

>  <VolSurf_HSA>
233.767

>  <VolSurf_PSAR>
0.236522

>  <VolSurf_PHSAR>
0.309796

>  <VolSurf_LgD5>
0.12855

>  <VolSurf_LgD6>
-0.818403

>  <VolSurf_LgD7>
-1.5504

>  <VolSurf_LgD7.5>
-1.72767

>  <VolSurf_LgD8>
-1.80311

>  <VolSurf_LgD9>
-1.83884

>  <VolSurf_LgD10>
-1.84258

>  <VolSurf_AUS7.4>
0.0

>  <VolSurf_%FU4>
27.6066

>  <VolSurf_%FU5>
3.67334

>  <VolSurf_%FU6>
0.379893

>  <VolSurf_%FU7>
0.0381196

>  <VolSurf_%FU8>
0.00381327

>  <VolSurf_%FU9>
3.8134E-4

>  <VolSurf_%FU10>
3.81341E-5

>  <ID>
10

>  <MOKAID>
11

>  <Clearance Route>
uncertain

>  <PC1>
-1.01461

>  <PC2>
4.40615

$$$$
Aclidinium bromide
  -OEChem-08301611272D

 33 37  0     1  0  0  0  0  0999 V2000
   -2.4931    8.1524    0.0000 C   0  0  0  0  0  0  0  0  0  0  0  0
   -3.3562    7.6474    0.0000 C   0  0  0  0  0  0  0  0  0  0  0  0
   -3.3562    6.6473    0.0000 C   0  0  0  0  0  0  0  0  0  0  0  0
   -2.4842    6.1473    0.0000 C   0  0  0  0  0  0  0  0  0  0  0  0
   -1.6122    6.6473    0.0000 C   0  0  0  0  0  0  0  0  0  0  0  0
   -1.6211    7.6524    0.0000 C   0  0  0  0  0  0  0  0  0  0  0  0
   -2.4842    5.1473    0.0000 O   0  0  0  0  0  0  0  0  0  0  0  0
   -1.6181    4.6473    0.0000 C   0  0  0  0  0  0  0  0  0  0  0  0
   -1.6181    3.6473    0.0000 C   0  0  0  0  0  0  0  0  0  0  0  0
   -0.7521    3.1473    0.0000 C   0  0  0  0  0  0  0  0  0  0  0  0
   -0.7521    2.1473    0.0000 N   0  3  0  0  0  0  0  0  0  0  0  0
    0.0282    1.4032    0.0000 C   0  0  0  0  0  0  0  0  0  0  0  0
    0.0000    0.0000    0.0000 C   0  0  0  0  0  0  0  0  0  0  0  0
   -0.7521   -0.6591    0.0000 C   0  0  0  0  0  0  0  0  0  0  0  0
   -1.9631    0.0354    0.0000 C   0  0  0  0  0  0  0  0  0  0  0  0
   -1.9631    1.4385    0.0000 C   0  0  0  0  0  0  0  0  0  0  0  0
    0.4589    0.0354    0.0000 C   0  0  2  0  0  0  0  0  0  0  0  0
    0.4589    1.4385    0.0000 C   0  0  0  0  0  0  0  0  0  0  0  0
    1.3242   -0.4659    0.0000 O   0  0  0  0  0  0  0  0  0  0  0  0
    2.1909    0.0329    0.0000 C   0  0  0  0  0  0  0  0  0  0  0  0
    2.1924    1.0329    0.0000 O   0  0  0  0  0  0  0  0  0  0  0  0
    3.0562   -0.4684    0.0000 C   0  0  0  0  0  0  0  0  0  0  0  0
    3.5575    0.3969    0.0000 C   0  0  0  0  0  0  0  0  0  0  0  0
    3.1523    1.3130    0.0000 C   0  0  0  0  0  0  0  0  0  0  0  0
    3.8966    1.9831    0.0000 C   0  0  0  0  0  0  0  0  0  0  0  0
    4.7613    1.4808    0.0000 C   0  0  0  0  0  0  0  0  0  0  0  0
    4.5567    0.5015    0.0000 S   0  0  0  0  0  0  0  0  0  0  0  0
    2.5550   -1.3337    0.0000 C   0  0  0  0  0  0  0  0  0  0  0  0
    2.9602   -2.2497    0.0000 C   0  0  0  0  0  0  0  0  0  0  0  0
    2.2159   -2.9198    0.0000 C   0  0  0  0  0  0  0  0  0  0  0  0
    1.3512   -2.4175    0.0000 C   0  0  0  0  0  0  0  0  0  0  0  0
    1.5558   -1.4382    0.0000 S   0  0  0  0  0  0  0  0  0  0  0  0
    3.9215   -0.9696    0.0000 O   0  0  0  0  0  0  0  0  0  0  0  0
  1  6  2  0  0  0  0
  1  2  1  0  0  0  0
  2  3  2  0  0  0  0
  3  4  1  0  0  0  0
  4  5  2  0  0  0  0
  5  6  1  0  0  0  0
  4  7  1  0  0  0  0
  7  8  1  0  0  0  0
  8  9  1  0  0  0  0
  9 10  1  0  0  0  0
 10 11  1  0  0  0  0
 11 16  1  0  0  0  0
 11 18  1  0  0  0  0
 11 12  1  0  0  0  0
 12 13  1  0  0  0  0
 13 14  1  0  0  0  0
 14 15  1  0  0  0  0
 15 16  1  0  0  0  0
 14 17  1  0  0  0  0
 17 18  1  0  0  0  0
 17 19  1  6  0  0  0
 19 20  1  0  0  0  0
 20 21  2  0  0  0  0
 20 22  1  0  0  0  0
 22 23  1  0  0  0  0
 23 27  1  0  0  0  0
 23 24  2  0  0  0  0
 24 25  1  0  0  0  0
 25 26  2  0  0  0  0
 26 27  1  0  0  0  0
 22 28  1  0  0  0  0
 28 32  1  0  0  0  0
 28 29  2  0  0  0  0
 29 30  1  0  0  0  0
 30 31  2  0  0  0  0
 31 32  1  0  0  0  0
 22 33  1  0  0  0  0
M  CHG  1  11   1
M  END
>  <Name>
Aclidinium bromide

>  <CAS #>
320345-99-1

>  <human Clearance (mL/min/kg)>
48.5

>  <Primary mechanism (metabolic, biliary or renal)>
metabolic

>  <seqId>
19.0

>  <Code (mechanism and clearance degree index)>
M1

>  < Five M1 and R1 test groups>
M1_4

>  <formamide>
0

>  <prodrug phosphates>
0

>  <VolSurf_V>
1033.62

>  <VolSurf_S>
678.137

>  <VolSurf_R>
1.52421

>  <VolSurf_G>
1.60652

>  <VolSurf_IW1>
0.0306619

>  <VolSurf_IW2>
0.147056

>  <VolSurf_IW3>
0.369839

>  <VolSurf_IW4>
0.576821

>  <VolSurf_ID1>
0.0237199

>  <VolSurf_ID2>
0.0777781

>  <VolSurf_ID3>
0.130804

>  <VolSurf_ID4>
0.136545

>  <VolSurf_HL1>
1.5

>  <VolSurf_HL2>
1.38636

>  <VolSurf_A>
5.36055

>  <VolSurf_CP>
0.837381

>  <VolSurf_POL>
51.841

>  <VolSurf_MW>
484.651

>  <VolSurf_FLEX>
2.84613

>  <VolSurf_FLEX_RB>
0.258739

>  <VolSurf_NCC>
1.0

>  <VolSurf_LOGP n-Oct>
1.721

>  <VolSurf_LOGP c-Hex>
3.702

>  <VolSurf_PSA>
88.47

>  <VolSurf_HSA>
589.667

>  <VolSurf_PSAR>
0.13046

>  <VolSurf_PHSAR>
0.150034

>  <VolSurf_LgD5>
1.721

>  <VolSurf_LgD6>
1.721

>  <VolSurf_LgD7>
1.721

>  <VolSurf_LgD7.5>
1.721

>  <VolSurf_LgD8>
1.721

>  <VolSurf_LgD9>
1.721

>  <VolSurf_LgD10>
1.72097

>  <VolSurf_AUS7.4>
0.0

>  <VolSurf_%FU4>
0.0

>  <VolSurf_%FU5>
0.0

>  <VolSurf_%FU6>
0.0

>  <VolSurf_%FU7>
0.0

>  <VolSurf_%FU8>
0.0

>  <VolSurf_%FU9>
0.0

>  <VolSurf_%FU10>
0.0

>  <ID>
11

>  <MOKAID>
12

>  <Clearance Route>
possible billary

>  <PC1>
0.675571

>  <PC2>
-2.79684

$$$$
Acyclovir
  -OEChem-08301611272D

 16 17  0     0  0  0  0  0  0999 V2000
   -1.7333   -2.0149    0.0000 N   0  0  0  0  0  0  0  0  0  0  0  0
   -0.8680   -1.5137    0.0000 C   0  0  0  0  0  0  0  0  0  0  0  0
    0.0000   -2.0116    0.0000 N   0  0  0  0  0  0  0  0  0  0  0  0
    0.8680   -1.5150    0.0000 C   0  0  0  0  0  0  0  0  0  0  0  0
    0.8680   -0.5079    0.0000 C   0  0  0  0  0  0  0  0  0  0  0  0
    1.8258   -0.1969    0.0000 N   0  0  0  0  0  0  0  0  0  0  0  0
    2.4178   -1.0115    0.0000 C   0  0  0  0  0  0  0  0  0  0  0  0
    1.8258   -1.8263    0.0000 N   0  0  0  0  0  0  0  0  0  0  0  0
    2.1348   -2.7774    0.0000 C   0  0  0  0  0  0  0  0  0  0  0  0
    3.1129   -2.9853    0.0000 O   0  0  0  0  0  0  0  0  0  0  0  0
    3.4219   -3.9364    0.0000 C   0  0  0  0  0  0  0  0  0  0  0  0
    4.4000   -4.1444    0.0000 C   0  0  0  0  0  0  0  0  0  0  0  0
    4.7090   -5.0954    0.0000 O   0  0  0  0  0  0  0  0  0  0  0  0
    0.0000    0.0000    0.0000 C   0  0  0  0  0  0  0  0  0  0  0  0
    0.0000    1.0000    0.0000 O   0  0  0  0  0  0  0  0  0  0  0  0
   -0.8680   -0.5079    0.0000 N   0  0  0  0  0  0  0  0  0  0  0  0
  1  2  1  0  0  0  0
  2 16  1  0  0  0  0
  2  3  2  0  0  0  0
  3  4  1  0  0  0  0
  4  8  1  0  0  0  0
  4  5  2  0  0  0  0
  5  6  1  0  0  0  0
  6  7  2  0  0  0  0
  7  8  1  0  0  0  0
  8  9  1  0  0  0  0
  9 10  1  0  0  0  0
 10 11  1  0  0  0  0
 11 12  1  0  0  0  0
 12 13  1  0  0  0  0
  5 14  1  0  0  0  0
 14 15  2  0  0  0  0
 14 16  1  0  0  0  0
M  END
>  <Name>
Acyclovir

>  <CAS #>
59277-89-3

>  <human Clearance (mL/min/kg)>
4.7

>  <Primary mechanism (metabolic, biliary or renal)>
renal

>  <seqId>
21.0

>  <Code (mechanism and clearance degree index)>
R1

>  < Five M1 and R1 test groups>
R1_1

>  <formamide>
0

>  <prodrug phosphates>
0

>  <VolSurf_V>
462.375

>  <VolSurf_S>
345.762

>  <VolSurf_R>
1.33726

>  <VolSurf_G>
1.30751

>  <VolSurf_IW1>
0.0402884

>  <VolSurf_IW2>
0.0749782

>  <VolSurf_IW3>
0.229681

>  <VolSurf_IW4>
1.11832

>  <VolSurf_ID1>
0.142242

>  <VolSurf_ID2>
0.215195

>  <VolSurf_ID3>
0.259778

>  <VolSurf_ID4>
0.3253

>  <VolSurf_HL1>
7.40805

>  <VolSurf_HL2>
4.61314

>  <VolSurf_A>
2.0653

>  <VolSurf_CP>
0.243115

>  <VolSurf_POL>
21.082

>  <VolSurf_MW>
225.205

>  <VolSurf_FLEX>
1.16583

>  <VolSurf_FLEX_RB>
0.194304

>  <VolSurf_NCC>
0.0

>  <VolSurf_LOGP n-Oct>
-1.746

>  <VolSurf_LOGP c-Hex>
-4.452

>  <VolSurf_PSA>
116.15

>  <VolSurf_HSA>
229.612

>  <VolSurf_PSAR>
0.335925

>  <VolSurf_PHSAR>
0.505854

>  <VolSurf_LgD5>
-1.74918

>  <VolSurf_LgD6>
-1.74688

>  <VolSurf_LgD7>
-1.7517

>  <VolSurf_LgD7.5>
-1.7637

>  <VolSurf_LgD8>
-1.79964

>  <VolSurf_LgD9>
-2.11042

>  <VolSurf_LgD10>
-2.8954

>  <VolSurf_AUS7.4>
1.989

>  <VolSurf_%FU4>
93.2061

>  <VolSurf_%FU5>
99.2705

>  <VolSurf_%FU6>
99.7968

>  <VolSurf_%FU7>
98.6949

>  <VolSurf_%FU8>
88.3767

>  <VolSurf_%FU9>
43.1919

>  <VolSurf_%FU10>
7.05996

>  <ID>
12

>  <MOKAID>
13

>  <Clearance Route>
uncertain

>  <PC1>
-1.1143299999999998

>  <PC2>
3.66129

$$$$
Adefovir
  -OEChem-08301611272D

 18 19  0     0  0  0  0  0  0999 V2000
    0.0000    1.0000    0.0000 N   0  0  0  0  0  0  0  0  0  0  0  0
    0.0000    0.0000    0.0000 C   0  0  0  0  0  0  0  0  0  0  0  0
   -0.8680   -0.5079    0.0000 N   0  0  0  0  0  0  0  0  0  0  0  0
   -0.8680   -1.5137    0.0000 C   0  0  0  0  0  0  0  0  0  0  0  0
    0.0000   -2.0116    0.0000 N   0  0  0  0  0  0  0  0  0  0  0  0
    0.8680   -1.5150    0.0000 C   0  0  0  0  0  0  0  0  0  0  0  0
    0.8680   -0.5079    0.0000 C   0  0  0  0  0  0  0  0  0  0  0  0
    1.8258   -0.1969    0.0000 N   0  0  0  0  0  0  0  0  0  0  0  0
    2.4178   -1.0115    0.0000 C   0  0  0  0  0  0  0  0  0  0  0  0
    1.8258   -1.8263    0.0000 N   0  0  0  0  0  0  0  0  0  0  0  0
    2.1348   -2.7774    0.0000 C   0  0  0  0  0  0  0  0  0  0  0  0
    3.1129   -2.9853    0.0000 C   0  0  0  0  0  0  0  0  0  0  0  0
    3.4219   -3.9364    0.0000 O   0  0  0  0  0  0  0  0  0  0  0  0
    4.4000   -4.1444    0.0000 C   0  0  0  0  0  0  0  0  0  0  0  0
    4.7090   -5.0954    0.0000 P   0  0  0  0  0  0  0  0  0  0  0  0
    5.0180   -6.0465    0.0000 O   0  0  0  0  0  0  0  0  0  0  0  0
    5.6601   -4.7865    0.0000 O   0  0  0  0  0  0  0  0  0  0  0  0
    3.7579   -5.4044    0.0000 O   0  0  0  0  0  0  0  0  0  0  0  0
  1  2  1  0  0  0  0
  2  7  2  0  0  0  0
  2  3  1  0  0  0  0
  3  4  2  0  0  0  0
  4  5  1  0  0  0  0
  5  6  2  0  0  0  0
  6 10  1  0  0  0  0
  6  7  1  0  0  0  0
  7  8  1  0  0  0  0
  8  9  2  0  0  0  0
  9 10  1  0  0  0  0
 10 11  1  0  0  0  0
 11 12  1  0  0  0  0
 12 13  1  0  0  0  0
 13 14  1  0  0  0  0
 14 15  1  0  0  0  0
 15 16  2  0  0  0  0
 15 17  1  0  0  0  0
 15 18  1  0  0  0  0
M  END
>  <Name>
Adefovir

>  <CAS #>
106941-25-7

>  <human Clearance (mL/min/kg)>
3.7

>  <Primary mechanism (metabolic, biliary or renal)>
renal

>  <seqId>
22.0

>  <Code (mechanism and clearance degree index)>
R1

>  < Five M1 and R1 test groups>
R1_4

>  <formamide>
0

>  <prodrug phosphates>
0

>  <VolSurf_V>
549.875

>  <VolSurf_S>
411.82

>  <VolSurf_R>
1.33523

>  <VolSurf_G>
1.42913

>  <VolSurf_IW1>
0.0684387

>  <VolSurf_IW2>
0.13372

>  <VolSurf_IW3>
0.304892

>  <VolSurf_IW4>
0.908059

>  <VolSurf_ID1>
0.144473

>  <VolSurf_ID2>
0.245699

>  <VolSurf_ID3>
0.339042

>  <VolSurf_ID4>
0.381341

>  <VolSurf_HL1>
5.68641

>  <VolSurf_HL2>
4.06186

>  <VolSurf_A>
4.54265

>  <VolSurf_CP>
0.250462

>  <VolSurf_POL>
27.501

>  <VolSurf_MW>
271.17

>  <VolSurf_FLEX>
1.87123

>  <VolSurf_FLEX_RB>
0.311872

>  <VolSurf_NCC>
1.0

>  <VolSurf_LOGP n-Oct>
-1.626

>  <VolSurf_LOGP c-Hex>
-4.718

>  <VolSurf_PSA>
130.66

>  <VolSurf_HSA>
281.16

>  <VolSurf_PSAR>
0.317275

>  <VolSurf_PHSAR>
0.464718

>  <VolSurf_LgD5>
-5.00272

>  <VolSurf_LgD6>
-6.12269

>  <VolSurf_LgD7>
-6.72592

>  <VolSurf_LgD7.5>
-6.82325

>  <VolSurf_LgD8>
-6.85868

>  <VolSurf_LgD9>
-6.87424

>  <VolSurf_LgD10>
-6.87582

>  <VolSurf_AUS7.4>
0.0

>  <VolSurf_%FU4>
0.0

>  <VolSurf_%FU5>
0.0

>  <VolSurf_%FU6>
0.0

>  <VolSurf_%FU7>
0.0

>  <VolSurf_%FU8>
0.0

>  <VolSurf_%FU9>
0.0

>  <VolSurf_%FU10>
0.0

>  <ID>
13

>  <MOKAID>
14

>  <Clearance Route>
renal

>  <PC1>
-5.73232

>  <PC2>
3.41796

$$$$
Adinazolam
  -OEChem-08301611272D

 25 28  0     0  0  0  0  0  0999 V2000
   -0.3367    4.7131    0.0000 C   0  0  0  0  0  0  0  0  0  0  0  0
    0.6151    4.4062    0.0000 N   0  0  0  0  0  0  0  0  0  0  0  0
    1.3567    5.0770    0.0000 C   0  0  0  0  0  0  0  0  0  0  0  0
    0.8252    3.4285    0.0000 C   0  0  0  0  0  0  0  0  0  0  0  0
    1.7770    3.1217    0.0000 C   0  0  0  0  0  0  0  0  0  0  0  0
    2.5897    3.7152    0.0000 N   0  0  0  0  0  0  0  0  0  0  0  0
    3.4052    3.1254    0.0000 N   0  0  0  0  0  0  0  0  0  0  0  0
    3.0964    2.1676    0.0000 C   0  0  0  0  0  0  0  0  0  0  0  0
    3.7309    1.3795    0.0000 C   0  0  0  0  0  0  0  0  0  0  0  0
    3.5149    0.3951    0.0000 N   0  0  0  0  0  0  0  0  0  0  0  0
    2.6074   -0.0433    0.0000 C   0  0  0  0  0  0  0  0  0  0  0  0
    2.6118   -1.0433    0.0000 C   0  0  0  0  0  0  0  0  0  0  0  0
    3.4860   -1.5395    0.0000 C   0  0  0  0  0  0  0  0  0  0  0  0
    3.4904   -2.5395    0.0000 C   0  0  0  0  0  0  0  0  0  0  0  0
    2.6295   -3.0484    0.0000 C   0  0  0  0  0  0  0  0  0  0  0  0
    1.7553   -2.5522    0.0000 C   0  0  0  0  0  0  0  0  0  0  0  0
    1.7420   -1.5471    0.0000 C   0  0  0  0  0  0  0  0  0  0  0  0
    1.6936    0.3883    0.0000 C   0  0  0  0  0  0  0  0  0  0  0  0
    0.9625   -0.2980    0.0000 C   0  0  0  0  0  0  0  0  0  0  0  0
    0.0000    0.0000    0.0000 C   0  0  0  0  0  0  0  0  0  0  0  0
   -0.7330   -0.6802    0.0000 Cl  0  0  0  0  0  0  0  0  0  0  0  0
   -0.2249    0.9801    0.0000 C   0  0  0  0  0  0  0  0  0  0  0  0
    0.5130    1.6623    0.0000 C   0  0  0  0  0  0  0  0  0  0  0  0
    1.4689    1.3684    0.0000 C   0  0  0  0  0  0  0  0  0  0  0  0
    2.0900    2.1653    0.0000 N   0  0  0  0  0  0  0  0  0  0  0  0
  1  2  1  0  0  0  0
  2  3  1  0  0  0  0
  2  4  1  0  0  0  0
  4  5  1  0  0  0  0
  5 25  1  0  0  0  0
  5  6  2  0  0  0  0
  6  7  1  0  0  0  0
  7  8  2  0  0  0  0
  8 25  1  0  0  0  0
  8  9  1  0  0  0  0
  9 10  1  0  0  0  0
 10 11  2  0  0  0  0
 11 12  1  0  0  0  0
 12 17  2  0  0  0  0
 12 13  1  0  0  0  0
 13 14  2  0  0  0  0
 14 15  1  0  0  0  0
 15 16  2  0  0  0  0
 16 17  1  0  0  0  0
 11 18  1  0  0  0  0
 18 24  2  0  0  0  0
 18 19  1  0  0  0  0
 19 20  2  0  0  0  0
 20 21  1  0  0  0  0
 20 22  1  0  0  0  0
 22 23  2  0  0  0  0
 23 24  1  0  0  0  0
 24 25  1  0  0  0  0
M  END
>  <Name>
Adinazolam

>  <CAS #>
37115-32-5

>  <human Clearance (mL/min/kg)>
6.2

>  <Primary mechanism (metabolic, biliary or renal)>
metabolic

>  <seqId>
23.0

>  <Code (mechanism and clearance degree index)>
M1

>  < Five M1 and R1 test groups>
M1_4

>  <formamide>
0

>  <prodrug phosphates>
0

>  <VolSurf_V>
768.25

>  <VolSurf_S>
516.932

>  <VolSurf_R>
1.48617

>  <VolSurf_G>
1.43854

>  <VolSurf_IW1>
0.0781492

>  <VolSurf_IW2>
0.33294

>  <VolSurf_IW3>
0.808119

>  <VolSurf_IW4>
1.11436

>  <VolSurf_ID1>
0.0459109

>  <VolSurf_ID2>
0.0770068

>  <VolSurf_ID3>
0.092182

>  <VolSurf_ID4>
0.109806

>  <VolSurf_HL1>
0.705497

>  <VolSurf_HL2>
0.55042

>  <VolSurf_A>
6.03312

>  <VolSurf_CP>
2.87533

>  <VolSurf_POL>
38.949

>  <VolSurf_MW>
351.832

>  <VolSurf_FLEX>
0.692798

>  <VolSurf_FLEX_RB>
0.13856

>  <VolSurf_NCC>
0.0

>  <VolSurf_LOGP n-Oct>
1.32

>  <VolSurf_LOGP c-Hex>
3.428

>  <VolSurf_PSA>
44.14

>  <VolSurf_HSA>
472.792

>  <VolSurf_PSAR>
0.0853884

>  <VolSurf_PHSAR>
0.0933603

>  <VolSurf_LgD5>
-0.85243

>  <VolSurf_LgD6>
0.555264

>  <VolSurf_LgD7>
1.17654

>  <VolSurf_LgD7.5>
1.27015

>  <VolSurf_LgD8>
1.3037

>  <VolSurf_LgD9>
1.31835

>  <VolSurf_LgD10>
1.31983

>  <VolSurf_AUS7.4>
1.94147

>  <VolSurf_%FU4>
0.00451402

>  <VolSurf_%FU5>
0.663924

>  <VolSurf_%FU6>
17.1687

>  <VolSurf_%FU7>
71.8598

>  <VolSurf_%FU8>
96.3148

>  <VolSurf_%FU9>
99.6197

>  <VolSurf_%FU10>
99.9619

>  <ID>
14

>  <MOKAID>
15

>  <Clearance Route>
metabolic

>  <PC1>
2.95142

>  <PC2>
0.523569

$$$$
Alcuronium
  -OEChem-08301611272D

 56 66  0     1  0  0  0  0  0999 V2000
    4.3487   -7.5598    0.0000 O   0  0  0  0  0  0  0  0  0  0  0  0
    3.9166   -6.6580    0.0000 C   0  0  0  0  0  0  0  0  0  0  0  0
    2.9196   -6.5812    0.0000 C   0  0  0  0  0  0  0  0  0  0  0  0
    2.4875   -5.6794    0.0000 C   0  0  0  0  0  0  0  0  0  0  0  0
    0.1582   -5.3189    0.0000 C   0  0  0  0  0  0  0  0  0  0  0  0
   -0.1570   -4.1427    0.0000 N   0  3  2  0  0  0  0  0  0  0  0  0
   -1.1080   -4.4518    0.0000 C   0  0  0  0  0  0  0  0  0  0  0  0
   -1.3159   -5.4299    0.0000 C   0  0  0  0  0  0  0  0  0  0  0  0
   -2.2670   -5.7390    0.0000 C   0  0  0  0  0  0  0  0  0  0  0  0
   -0.5934   -3.0060    0.0000 C   0  0  0  0  0  0  0  0  0  0  0  0
    0.3530   -2.2395    0.0000 C   0  0  0  0  0  0  0  0  0  0  0  0
    1.3743   -2.9026    0.0000 C   0  0  1  0  0  0  0  0  0  0  0  0
    1.0592   -4.0790    0.0000 C   0  0  2  0  0  0  0  0  0  0  0  0
    1.9203   -4.9402    0.0000 C   0  0  0  0  0  0  0  0  0  0  0  0
    3.0964   -4.6249    0.0000 C   0  0  2  0  0  0  0  0  0  0  0  0
    3.4115   -3.4487    0.0000 C   0  0  0  0  0  0  0  0  0  0  0  0
    4.6293   -3.4487    0.0000 C   0  0  0  0  0  0  0  0  0  0  0  0
    5.4904   -2.5876    0.0000 N   0  0  0  0  0  0  0  0  0  0  0  0
    5.4904   -1.3699    0.0000 C   0  0  1  0  0  0  0  0  0  0  0  0
    4.6293   -0.5087    0.0000 C   0  0  0  0  0  0  0  0  0  0  0  0
    3.4115   -0.5087    0.0000 C   0  0  0  0  0  0  0  0  0  0  0  0
    2.5505   -1.3699    0.0000 N   0  0  0  0  0  0  0  0  0  0  0  0
    2.5505   -2.5876    0.0000 C   0  0  2  0  0  0  0  0  0  0  0  0
    1.3743   -1.0547    0.0000 C   0  0  0  0  0  0  0  0  0  0  0  0
    0.9917   -0.1307    0.0000 C   0  0  0  0  0  0  0  0  0  0  0  0
    0.0000    0.0000    0.0000 C   0  0  0  0  0  0  0  0  0  0  0  0
   -0.6089   -0.7937    0.0000 C   0  0  0  0  0  0  0  0  0  0  0  0
   -0.2261   -1.7175    0.0000 C   0  0  0  0  0  0  0  0  0  0  0  0
    0.7655   -1.8481    0.0000 C   0  0  0  0  0  0  0  0  0  0  0  0
    4.9446    0.6674    0.0000 C   0  0  1  0  0  0  0  0  0  0  0  0
    6.1207    0.9826    0.0000 C   0  0  0  0  0  0  0  0  0  0  0  0
    6.9816    0.1215    0.0000 C   0  0  1  0  0  0  0  0  0  0  0  0
    6.6666   -1.0547    0.0000 C   0  0  2  0  0  0  0  0  0  0  0  0
    7.6879   -1.7179    0.0000 C   0  0  0  0  0  0  0  0  0  0  0  0
    8.6341   -0.9516    0.0000 C   0  0  0  0  0  0  0  0  0  0  0  0
    8.1978    0.1854    0.0000 N   0  3  2  0  0  0  0  0  0  0  0  0
    9.1811    0.3676    0.0000 C   0  0  0  0  0  0  0  0  0  0  0  0
    9.5149    1.3102    0.0000 C   0  0  0  0  0  0  0  0  0  0  0  0
   10.4982    1.4924    0.0000 C   0  0  0  0  0  0  0  0  0  0  0  0
    8.1978    1.4031    0.0000 C   0  0  0  0  0  0  0  0  0  0  0  0
    5.5534    1.7220    0.0000 C   0  0  0  0  0  0  0  0  0  0  0  0
    5.1062    2.6164    0.0000 C   0  0  0  0  0  0  0  0  0  0  0  0
    4.1080    2.6764    0.0000 C   0  0  0  0  0  0  0  0  0  0  0  0
    3.6608    3.5708    0.0000 O   0  0  0  0  0  0  0  0  0  0  0  0
    7.2755   -2.1091    0.0000 C   0  0  0  0  0  0  0  0  0  0  0  0
    8.5823   -2.1984    0.0000 C   0  0  0  0  0  0  0  0  0  0  0  0
    9.1585   -3.3746    0.0000 C   0  0  0  0  0  0  0  0  0  0  0  0
    8.4279   -4.4617    0.0000 C   0  0  0  0  0  0  0  0  0  0  0  0
    7.1212   -4.3726    0.0000 C   0  0  0  0  0  0  0  0  0  0  0  0
    6.5449   -3.1965    0.0000 C   0  0  0  0  0  0  0  0  0  0  0  0
    2.0251   -3.8202    0.0000 H   0  0  0  0  0  0  0  0  0  0  0  0
    4.0203   -5.0076    0.0000 H   0  0  0  0  0  0  0  0  0  0  0  0
    6.2838   -1.9786    0.0000 H   0  0  0  0  0  0  0  0  0  0  0  0
    3.4744   -2.2049    0.0000 H   0  0  0  0  0  0  0  0  0  0  0  0
    4.0207    1.0501    0.0000 H   0  0  0  0  0  0  0  0  0  0  0  0
    7.3400    1.0551    0.0000 H   0  0  0  0  0  0  0  0  0  0  0  0
  1  2  1  0  0  0  0
  2  3  1  0  0  0  0
  3  4  2  0  0  0  0
  4 15  1  0  0  0  0
  4  5  1  0  0  0  0
  5  6  1  0  0  0  0
  6 13  1  0  0  0  0
  6  7  1  1  0  0  0
  7  8  1  0  0  0  0
  8  9  2  0  0  0  0
  6 10  1  0  0  0  0
 10 11  1  0  0  0  0
 12 11  1  6  0  0  0
 12 23  1  0  0  0  0
 12 29  1  0  0  0  0
 12 13  1  0  0  0  0
 13 14  1  0  0  0  0
 14 15  1  0  0  0  0
 15 16  1  0  0  0  0
 16 23  1  0  0  0  0
 16 17  2  3  0  0  0
 17 18  1  0  0  0  0
 18 50  1  0  0  0  0
 18 19  1  0  0  0  0
 19 33  1  0  0  0  0
 19 20  1  0  0  0  0
 20 21  2  3  0  0  0
 21 22  1  0  0  0  0
 22 23  1  0  0  0  0
 22 24  1  0  0  0  0
 24 29  2  0  0  0  0
 24 25  1  0  0  0  0
 25 26  2  0  0  0  0
 26 27  1  0  0  0  0
 27 28  2  0  0  0  0
 28 29  1  0  0  0  0
 20 30  1  0  0  0  0
 30 41  1  0  0  0  0
 30 31  1  0  0  0  0
 31 32  1  0  0  0  0
 32 36  1  0  0  0  0
 32 33  1  0  0  0  0
 33 34  1  6  0  0  0
 34 35  1  0  0  0  0
 35 36  1  0  0  0  0
 36 37  1  1  0  0  0
 37 38  1  0  0  0  0
 38 39  2  0  0  0  0
 36 40  1  0  0  0  0
 40 41  1  0  0  0  0
 41 42  2  0  0  0  0
 42 43  1  0  0  0  0
 43 44  1  0  0  0  0
 33 45  1  0  0  0  0
 45 50  2  0  0  0  0
 45 46  1  0  0  0  0
 46 47  2  0  0  0  0
 47 48  1  0  0  0  0
 48 49  2  0  0  0  0
 49 50  1  0  0  0  0
 13 51  1  1  0  0  0
 15 52  1  1  0  0  0
 19 53  1  6  0  0  0
 23 54  1  6  0  0  0
 30 55  1  1  0  0  0
 32 56  1  1  0  0  0
M  CHG  2   6   1  36   1
M  END
>  <Name>
Alcuronium

>  <CAS #>
23214-96-2

>  <human Clearance (mL/min/kg)>
1.3

>  <Primary mechanism (metabolic, biliary or renal)>
renal

>  <seqId>
25.0

>  <Code (mechanism and clearance degree index)>
R1

>  < Five M1 and R1 test groups>
R1_2

>  <formamide>
0

>  <prodrug phosphates>
0

>  <VolSurf_V>
1375.5

>  <VolSurf_S>
806.93

>  <VolSurf_R>
1.70461

>  <VolSurf_G>
1.56699

>  <VolSurf_IW1>
0.0332167

>  <VolSurf_IW2>
0.166814

>  <VolSurf_IW3>
0.358385

>  <VolSurf_IW4>
0.423011

>  <VolSurf_ID1>
0.0188031

>  <VolSurf_ID2>
0.0778067

>  <VolSurf_ID3>
0.141451

>  <VolSurf_ID4>
0.187937

>  <VolSurf_HL1>
1.34396

>  <VolSurf_HL2>
1.36066

>  <VolSurf_A>
6.84442

>  <VolSurf_CP>
0.853926

>  <VolSurf_POL>
77.2721

>  <VolSurf_MW>
666.893

>  <VolSurf_FLEX>
0.537676

>  <VolSurf_FLEX_RB>
0.0672095

>  <VolSurf_NCC>
2.0

>  <VolSurf_LOGP n-Oct>
-4.816

>  <VolSurf_LOGP c-Hex>
5.108

>  <VolSurf_PSA>
60.42

>  <VolSurf_HSA>
746.51

>  <VolSurf_PSAR>
0.0748764

>  <VolSurf_PHSAR>
0.0809367

>  <VolSurf_LgD5>
-4.81606

>  <VolSurf_LgD6>
-4.81601

>  <VolSurf_LgD7>
-4.816

>  <VolSurf_LgD7.5>
-4.816

>  <VolSurf_LgD8>
-4.816

>  <VolSurf_LgD9>
-4.81601

>  <VolSurf_LgD10>
-4.81605

>  <VolSurf_AUS7.4>
0.0

>  <VolSurf_%FU4>
0.0

>  <VolSurf_%FU5>
0.0

>  <VolSurf_%FU6>
0.0

>  <VolSurf_%FU7>
0.0

>  <VolSurf_%FU8>
0.0

>  <VolSurf_%FU9>
0.0

>  <VolSurf_%FU10>
0.0

>  <ID>
15

>  <MOKAID>
16

>  <Clearance Route>
possible billary

>  <PC1>
-3.3126300000000004

>  <PC2>
-3.12545

$$$$
Alfentanil
  -OEChem-08301611272D

 30 32  0     0  0  0  0  0  0999 V2000
    1.2214    6.7522    0.0000 C   0  0  0  0  0  0  0  0  0  0  0  0
    0.2272    6.8596    0.0000 C   0  0  0  0  0  0  0  0  0  0  0  0
   -0.3629    6.0522    0.0000 N   0  0  0  0  0  0  0  0  0  0  0  0
   -1.3644    6.0538    0.0000 N   0  0  0  0  0  0  0  0  0  0  0  0
   -1.6776    5.1024    0.0000 N   0  0  0  0  0  0  0  0  0  0  0  0
   -0.8660    4.5104    0.0000 N   0  0  0  0  0  0  0  0  0  0  0  0
   -0.8660    3.5104    0.0000 C   0  0  0  0  0  0  0  0  0  0  0  0
   -0.0000    3.0104    0.0000 C   0  0  0  0  0  0  0  0  0  0  0  0
   -0.0000    2.0104    0.0000 N   0  0  0  0  0  0  0  0  0  0  0  0
   -0.8675    1.5027    0.0000 C   0  0  0  0  0  0  0  0  0  0  0  0
   -0.8675    0.4975    0.0000 C   0  0  0  0  0  0  0  0  0  0  0  0
    0.0000    0.0000    0.0000 C   0  0  0  0  0  0  0  0  0  0  0  0
    0.6420   -0.7667    0.0000 C   0  0  0  0  0  0  0  0  0  0  0  0
    1.6270   -0.5940    0.0000 O   0  0  0  0  0  0  0  0  0  0  0  0
    2.2691   -1.3606    0.0000 C   0  0  0  0  0  0  0  0  0  0  0  0
    0.8675    0.4975    0.0000 C   0  0  0  0  0  0  0  0  0  0  0  0
    0.8675    1.5027    0.0000 C   0  0  0  0  0  0  0  0  0  0  0  0
   -0.6420   -0.7667    0.0000 N   0  0  0  0  0  0  0  0  0  0  0  0
   -0.2991   -1.7060    0.0000 C   0  0  0  0  0  0  0  0  0  0  0  0
   -0.9412   -2.4727    0.0000 O   0  0  0  0  0  0  0  0  0  0  0  0
    0.6859   -1.8787    0.0000 C   0  0  0  0  0  0  0  0  0  0  0  0
    1.0288   -2.8181    0.0000 C   0  0  0  0  0  0  0  0  0  0  0  0
   -1.6270   -0.5940    0.0000 C   0  0  0  0  0  0  0  0  0  0  0  0
   -2.2701   -1.3665    0.0000 C   0  0  0  0  0  0  0  0  0  0  0  0
   -3.2551   -1.1939    0.0000 C   0  0  0  0  0  0  0  0  0  0  0  0
   -3.6036   -0.2565    0.0000 C   0  0  0  0  0  0  0  0  0  0  0  0
   -2.9605    0.5161    0.0000 C   0  0  0  0  0  0  0  0  0  0  0  0
   -1.9689    0.3512    0.0000 C   0  0  0  0  0  0  0  0  0  0  0  0
   -0.0578    5.1000    0.0000 C   0  0  0  0  0  0  0  0  0  0  0  0
    0.8929    4.7899    0.0000 O   0  0  0  0  0  0  0  0  0  0  0  0
  1  2  1  0  0  0  0
  2  3  1  0  0  0  0
  3 29  1  0  0  0  0
  3  4  1  0  0  0  0
  4  5  2  0  0  0  0
  5  6  1  0  0  0  0
  6  7  1  0  0  0  0
  7  8  1  0  0  0  0
  8  9  1  0  0  0  0
  9 17  1  0  0  0  0
  9 10  1  0  0  0  0
 10 11  1  0  0  0  0
 11 12  1  0  0  0  0
 12 13  1  0  0  0  0
 13 14  1  0  0  0  0
 14 15  1  0  0  0  0
 12 16  1  0  0  0  0
 16 17  1  0  0  0  0
 12 18  1  0  0  0  0
 18 19  1  0  0  0  0
 19 20  2  0  0  0  0
 19 21  1  0  0  0  0
 21 22  1  0  0  0  0
 18 23  1  0  0  0  0
 23 28  2  0  0  0  0
 23 24  1  0  0  0  0
 24 25  2  0  0  0  0
 25 26  1  0  0  0  0
 26 27  2  0  0  0  0
 27 28  1  0  0  0  0
  6 29  1  0  0  0  0
 29 30  2  0  0  0  0
M  END
>  <Name>
Alfentanil

>  <CAS #>
71195-58-9

>  <human Clearance (mL/min/kg)>
3.9

>  <Primary mechanism (metabolic, biliary or renal)>
metabolic

>  <seqId>
27.0

>  <Code (mechanism and clearance degree index)>
M1

>  < Five M1 and R1 test groups>
M1_2

>  <formamide>
0

>  <prodrug phosphates>
0

>  <VolSurf_V>
947.875

>  <VolSurf_S>
654.049

>  <VolSurf_R>
1.44924

>  <VolSurf_G>
1.65935

>  <VolSurf_IW1>
0.0424003

>  <VolSurf_IW2>
0.11066

>  <VolSurf_IW3>
0.231159

>  <VolSurf_IW4>
0.317304

>  <VolSurf_ID1>
0.0122163

>  <VolSurf_ID2>
0.0914268

>  <VolSurf_ID3>
0.187932

>  <VolSurf_ID4>
0.244994

>  <VolSurf_HL1>
3.38344

>  <VolSurf_HL2>
2.94271

>  <VolSurf_A>
1.03907

>  <VolSurf_CP>
0.524118

>  <VolSurf_POL>
44.48

>  <VolSurf_MW>
416.517

>  <VolSurf_FLEX>
2.68791

>  <VolSurf_FLEX_RB>
0.206762

>  <VolSurf_NCC>
0.0

>  <VolSurf_LOGP n-Oct>
2.81

>  <VolSurf_LOGP c-Hex>
-0.581

>  <VolSurf_PSA>
84.2

>  <VolSurf_HSA>
569.849

>  <VolSurf_PSAR>
0.128736

>  <VolSurf_PHSAR>
0.147758

>  <VolSurf_LgD5>
0.958124

>  <VolSurf_LgD6>
1.89786

>  <VolSurf_LgD7>
2.57486

>  <VolSurf_LgD7.5>
2.72107

>  <VolSurf_LgD8>
2.77986

>  <VolSurf_LgD9>
2.80689

>  <VolSurf_LgD10>
2.80969

>  <VolSurf_AUS7.4>
1.89458

>  <VolSurf_%FU4>
0.138909

>  <VolSurf_%FU5>
1.37193

>  <VolSurf_%FU6>
12.2115

>  <VolSurf_%FU7>
58.1768

>  <VolSurf_%FU8>
93.2932

>  <VolSurf_%FU9>
99.2862

>  <VolSurf_%FU10>
99.9282

>  <ID>
16

>  <MOKAID>
17

>  <Clearance Route>
metabolic

>  <PC1>
2.52148

>  <PC2>
-2.15768

$$$$
Alfuzosin
  -OEChem-08301611272D

 28 30  0     1  0  0  0  0  0999 V2000
   -0.8704    2.5031    0.0000 C   0  0  0  0  0  0  0  0  0  0  0  0
   -0.8675    1.5031    0.0000 O   0  0  0  0  0  0  0  0  0  0  0  0
   -0.0000    1.0056    0.0000 C   0  0  0  0  0  0  0  0  0  0  0  0
    0.8679    1.5135    0.0000 C   0  0  0  0  0  0  0  0  0  0  0  0
    1.7358    1.0056    0.0000 C   0  0  0  0  0  0  0  0  0  0  0  0
    2.6012    1.5123    0.0000 N   0  0  0  0  0  0  0  0  0  0  0  0
    3.4735    1.0079    0.0000 C   0  0  0  0  0  0  0  0  0  0  0  0
    3.4748    0.0023    0.0000 N   0  0  0  0  0  0  0  0  0  0  0  0
    2.6038   -0.4989    0.0000 C   0  0  0  0  0  0  0  0  0  0  0  0
    2.6037   -1.4989    0.0000 N   0  0  0  0  0  0  0  0  0  0  0  0
    1.7371    0.0000    0.0000 C   0  0  0  0  0  0  0  0  0  0  0  0
    0.8679   -0.4977    0.0000 C   0  0  0  0  0  0  0  0  0  0  0  0
    0.0000    0.0000    0.0000 C   0  0  0  0  0  0  0  0  0  0  0  0
   -0.8653   -0.5013    0.0000 O   0  0  0  0  0  0  0  0  0  0  0  0
   -0.8638   -1.5013    0.0000 C   0  0  0  0  0  0  0  0  0  0  0  0
    4.3394    1.5082    0.0000 N   0  0  3  0  0  0  0  0  0  0  0  0
    5.2056    1.0084    0.0000 C   0  0  0  0  0  0  0  0  0  0  0  0
    4.3391    2.5082    0.0000 C   0  0  0  0  0  0  0  0  0  0  0  0
    5.2049    3.0084    0.0000 C   0  0  0  0  0  0  0  0  0  0  0  0
    5.2046    4.0084    0.0000 C   0  0  0  0  0  0  0  0  0  0  0  0
    6.0705    4.5087    0.0000 N   0  0  0  0  0  0  0  0  0  0  0  0
    6.0702    5.5087    0.0000 C   0  0  0  0  0  0  0  0  0  0  0  0
    5.2040    6.0084    0.0000 O   0  0  0  0  0  0  0  0  0  0  0  0
    6.9360    6.0090    0.0000 C   0  0  3  0  0  0  0  0  0  0  0  0
    7.0414    7.0051    0.0000 C   0  0  0  0  0  0  0  0  0  0  0  0
    8.0206    7.2150    0.0000 C   0  0  0  0  0  0  0  0  0  0  0  0
    8.5199    6.3485    0.0000 C   0  0  0  0  0  0  0  0  0  0  0  0
    7.8543    5.6015    0.0000 O   0  0  0  0  0  0  0  0  0  0  0  0
  1  2  1  0  0  0  0
  2  3  1  0  0  0  0
  3 13  2  0  0  0  0
  3  4  1  0  0  0  0
  4  5  2  0  0  0  0
  5 11  1  0  0  0  0
  5  6  1  0  0  0  0
  6  7  2  0  0  0  0
  7  8  1  0  0  0  0
  8  9  2  0  0  0  0
  9 10  1  0  0  0  0
  9 11  1  0  0  0  0
 11 12  2  0  0  0  0
 12 13  1  0  0  0  0
 13 14  1  0  0  0  0
 14 15  1  0  0  0  0
  7 16  1  0  0  0  0
 16 17  1  0  0  0  0
 16 18  1  0  0  0  0
 18 19  1  0  0  0  0
 19 20  1  0  0  0  0
 20 21  1  0  0  0  0
 21 22  1  0  0  0  0
 22 23  2  0  0  0  0
 22 24  1  0  0  0  0
 24 28  1  0  0  0  0
 24 25  1  0  0  0  0
 25 26  1  0  0  0  0
 26 27  1  0  0  0  0
 27 28  1  0  0  0  0
M  END
>  <Name>
Alfuzosin

>  <CAS #>
81403-80-7

>  <human Clearance (mL/min/kg)>
5.9

>  <Primary mechanism (metabolic, biliary or renal)>
metabolic

>  <seqId>
28.0

>  <Code (mechanism and clearance degree index)>
M1

>  < Five M1 and R1 test groups>
M1_4

>  <formamide>
0

>  <prodrug phosphates>
0

>  <VolSurf_V>
882.75

>  <VolSurf_S>
633.882

>  <VolSurf_R>
1.39261

>  <VolSurf_G>
1.7

>  <VolSurf_IW1>
0.0155129

>  <VolSurf_IW2>
0.0499364

>  <VolSurf_IW3>
0.26831

>  <VolSurf_IW4>
0.56055

>  <VolSurf_ID1>
0.0142428

>  <VolSurf_ID2>
0.102644

>  <VolSurf_ID3>
0.176722

>  <VolSurf_ID4>
0.220032

>  <VolSurf_HL1>
1.67991

>  <VolSurf_HL2>
1.14803

>  <VolSurf_A>
4.32281

>  <VolSurf_CP>
0.876568

>  <VolSurf_POL>
40.203

>  <VolSurf_MW>
390.457

>  <VolSurf_FLEX>
2.46349

>  <VolSurf_FLEX_RB>
0.205291

>  <VolSurf_NCC>
1.0

>  <VolSurf_LOGP n-Oct>
2.302

>  <VolSurf_LOGP c-Hex>
-1.859

>  <VolSurf_PSA>
120.78

>  <VolSurf_HSA>
513.102

>  <VolSurf_PSAR>
0.19054

>  <VolSurf_PHSAR>
0.235392

>  <VolSurf_LgD5>
-0.35702

>  <VolSurf_LgD6>
0.575498

>  <VolSurf_LgD7>
1.50224

>  <VolSurf_LgD7.5>
1.87389

>  <VolSurf_LgD8>
2.11691

>  <VolSurf_LgD9>
2.2795

>  <VolSurf_LgD10>
2.2996

>  <VolSurf_AUS7.4>
1.51569

>  <VolSurf_%FU4>
0.0187833

>  <VolSurf_%FU5>
0.18771

>  <VolSurf_%FU6>
1.84611

>  <VolSurf_%FU7>
15.8309

>  <VolSurf_%FU8>
65.2879

>  <VolSurf_%FU9>
94.9497

>  <VolSurf_%FU10>
99.4491

>  <ID>
17

>  <MOKAID>
18

>  <Clearance Route>
possible billary

>  <PC1>
1.24679

>  <PC2>
-1.75823

$$$$
Alizapride
  -OEChem-08301611272D

 23 25  0     1  0  0  0  0  0999 V2000
   -0.8704    1.4975    0.0000 C   0  0  0  0  0  0  0  0  0  0  0  0
   -0.8675    0.4975    0.0000 O   0  0  0  0  0  0  0  0  0  0  0  0
    0.0000    0.0000    0.0000 C   0  0  0  0  0  0  0  0  0  0  0  0
    0.8680    0.5079    0.0000 C   0  0  0  0  0  0  0  0  0  0  0  0
    1.7360    0.0000    0.0000 C   0  0  0  0  0  0  0  0  0  0  0  0
    2.6938    0.3110    0.0000 N   0  0  0  0  0  0  0  0  0  0  0  0
    3.2858   -0.5036    0.0000 N   0  0  0  0  0  0  0  0  0  0  0  0
    2.6938   -1.3184    0.0000 N   0  0  0  0  0  0  0  0  0  0  0  0
    1.7360   -1.0071    0.0000 C   0  0  0  0  0  0  0  0  0  0  0  0
    0.8680   -1.5037    0.0000 C   0  0  0  0  0  0  0  0  0  0  0  0
    0.0000   -1.0058    0.0000 C   0  0  0  0  0  0  0  0  0  0  0  0
   -0.8653   -1.5070    0.0000 C   0  0  0  0  0  0  0  0  0  0  0  0
   -1.7320   -1.0082    0.0000 O   0  0  0  0  0  0  0  0  0  0  0  0
   -0.8639   -2.5070    0.0000 N   0  0  0  0  0  0  0  0  0  0  0  0
   -1.7292   -3.0082    0.0000 C   0  0  0  0  0  0  0  0  0  0  0  0
   -1.7278   -4.0082    0.0000 C   0  0  3  0  0  0  0  0  0  0  0  0
   -0.9172   -4.5966    0.0000 C   0  0  0  0  0  0  0  0  0  0  0  0
   -1.2240   -5.5500    0.0000 C   0  0  0  0  0  0  0  0  0  0  0  0
   -2.2240   -5.5502    0.0000 C   0  0  0  0  0  0  0  0  0  0  0  0
   -2.5392   -4.6007    0.0000 N   0  0  3  0  0  0  0  0  0  0  0  0
   -3.4916   -4.2958    0.0000 C   0  0  0  0  0  0  0  0  0  0  0  0
   -4.2318   -4.9681    0.0000 C   0  0  0  0  0  0  0  0  0  0  0  0
   -5.1842   -4.6633    0.0000 C   0  0  0  0  0  0  0  0  0  0  0  0
  1  2  1  0  0  0  0
  2  3  1  0  0  0  0
  3 11  2  0  0  0  0
  3  4  1  0  0  0  0
  4  5  2  0  0  0  0
  5  9  1  0  0  0  0
  5  6  1  0  0  0  0
  6  7  2  0  0  0  0
  7  8  1  0  0  0  0
  8  9  1  0  0  0  0
  9 10  2  0  0  0  0
 10 11  1  0  0  0  0
 11 12  1  0  0  0  0
 12 13  2  0  0  0  0
 12 14  1  0  0  0  0
 14 15  1  0  0  0  0
 15 16  1  0  0  0  0
 16 20  1  0  0  0  0
 16 17  1  0  0  0  0
 17 18  1  0  0  0  0
 18 19  1  0  0  0  0
 19 20  1  0  0  0  0
 20 21  1  0  0  0  0
 21 22  1  0  0  0  0
 22 23  2  0  0  0  0
M  END
>  <Name>
Alizapride

>  <CAS #>
59338-93-1

>  <human Clearance (mL/min/kg)>
6.6

>  <Primary mechanism (metabolic, biliary or renal)>
renal

>  <seqId>
29.0

>  <Code (mechanism and clearance degree index)>
R1

>  < Five M1 and R1 test groups>
R1_3

>  <formamide>
0

>  <prodrug phosphates>
0

>  <VolSurf_V>
733.25

>  <VolSurf_S>
499.231

>  <VolSurf_R>
1.46876

>  <VolSurf_G>
1.43045

>  <VolSurf_IW1>
0.116857

>  <VolSurf_IW2>
0.320278

>  <VolSurf_IW3>
0.662149

>  <VolSurf_IW4>
0.752295

>  <VolSurf_ID1>
0.0195209

>  <VolSurf_ID2>
0.114443

>  <VolSurf_ID3>
0.232074

>  <VolSurf_ID4>
0.301185

>  <VolSurf_HL1>
1.70379

>  <VolSurf_HL2>
1.25843

>  <VolSurf_A>
1.27845

>  <VolSurf_CP>
0.915603

>  <VolSurf_POL>
35.764

>  <VolSurf_MW>
316.378

>  <VolSurf_FLEX>
1.70395

>  <VolSurf_FLEX_RB>
0.243421

>  <VolSurf_NCC>
1.0

>  <VolSurf_LOGP n-Oct>
1.872

>  <VolSurf_LOGP c-Hex>
-3.109

>  <VolSurf_PSA>
89.23

>  <VolSurf_HSA>
410.001

>  <VolSurf_PSAR>
0.178735

>  <VolSurf_PHSAR>
0.217634

>  <VolSurf_LgD5>
-1.29321

>  <VolSurf_LgD6>
-0.525256

>  <VolSurf_LgD7>
0.428774

>  <VolSurf_LgD7.5>
0.893257

>  <VolSurf_LgD8>
1.29824

>  <VolSurf_LgD9>
1.61664

>  <VolSurf_LgD10>
1.07079

>  <VolSurf_AUS7.4>
0.964167

>  <VolSurf_%FU4>
0.00354613

>  <VolSurf_%FU5>
0.0368868

>  <VolSurf_%FU6>
0.369138

>  <VolSurf_%FU7>
3.57342

>  <VolSurf_%FU8>
26.6603

>  <VolSurf_%FU9>
55.5309

>  <VolSurf_%FU10>
15.7784

>  <ID>
18

>  <MOKAID>
19

>  <Clearance Route>
uncertain

>  <PC1>
0.526612

>  <PC2>
0.708836

$$$$
Allopurinol
  -OEChem-08301611272D

 10 11  0     0  0  0  0  0  0999 V2000
    0.0000    1.0000    0.0000 O   0  0  0  0  0  0  0  0  0  0  0  0
    0.0000    0.0000    0.0000 C   0  0  0  0  0  0  0  0  0  0  0  0
   -0.8680   -0.5079    0.0000 N   0  0  0  0  0  0  0  0  0  0  0  0
   -0.8680   -1.5137    0.0000 C   0  0  0  0  0  0  0  0  0  0  0  0
   -0.0000   -2.0116    0.0000 N   0  0  0  0  0  0  0  0  0  0  0  0
    0.8680   -1.5150    0.0000 C   0  0  0  0  0  0  0  0  0  0  0  0
    1.8258   -1.8263    0.0000 N   0  0  0  0  0  0  0  0  0  0  0  0
    2.4178   -1.0115    0.0000 N   0  0  0  0  0  0  0  0  0  0  0  0
    1.8258   -0.1969    0.0000 C   0  0  0  0  0  0  0  0  0  0  0  0
    0.8680   -0.5079    0.0000 C   0  0  0  0  0  0  0  0  0  0  0  0
  1  2  2  0  0  0  0
  2 10  1  0  0  0  0
  2  3  1  0  0  0  0
  3  4  1  0  0  0  0
  4  5  2  0  0  0  0
  5  6  1  0  0  0  0
  6 10  2  0  0  0  0
  6  7  1  0  0  0  0
  7  8  1  0  0  0  0
  8  9  2  0  0  0  0
  9 10  1  0  0  0  0
M  END
>  <Name>
Allopurinol

>  <CAS #>
315-30-0

>  <human Clearance (mL/min/kg)>
11.0

>  <Primary mechanism (metabolic, biliary or renal)>
metabolic

>  <seqId>
30.0

>  <Code (mechanism and clearance degree index)>
M1

>  < Five M1 and R1 test groups>
M1_2

>  <formamide>
0

>  <prodrug phosphates>
0

>  <VolSurf_V>
288.125

>  <VolSurf_S>
222.969

>  <VolSurf_R>
1.29222

>  <VolSurf_G>
1.08657

>  <VolSurf_IW1>
0.0736003

>  <VolSurf_IW2>
0.135199

>  <VolSurf_IW3>
0.273974

>  <VolSurf_IW4>
0.547806

>  <VolSurf_ID1>
0.0319802

>  <VolSurf_ID2>
0.0314009

>  <VolSurf_ID3>
0.0582638

>  <VolSurf_ID4>
0.110036

>  <VolSurf_HL1>
2.94366

>  <VolSurf_HL2>
1.81106

>  <VolSurf_A>
0.745892

>  <VolSurf_CP>
5.54639

>  <VolSurf_POL>
12.826

>  <VolSurf_MW>
136.111

>  <VolSurf_FLEX>
0.0

>  <VolSurf_FLEX_RB>
0.0

>  <VolSurf_NCC>
0.0

>  <VolSurf_LOGP n-Oct>
-0.834

>  <VolSurf_LOGP c-Hex>
-3.168

>  <VolSurf_PSA>
66.39

>  <VolSurf_HSA>
156.579

>  <VolSurf_PSAR>
0.297755

>  <VolSurf_PHSAR>
0.424004

>  <VolSurf_LgD5>
-0.834191

>  <VolSurf_LgD6>
-0.834142

>  <VolSurf_LgD7>
-0.83524

>  <VolSurf_LgD7.5>
-0.837905

>  <VolSurf_LgD8>
-0.84623

>  <VolSurf_LgD9>
-0.943099

>  <VolSurf_LgD10>
-1.41987

>  <VolSurf_AUS7.4>
1.99994

>  <VolSurf_%FU4>
99.5902

>  <VolSurf_%FU5>
99.956

>  <VolSurf_%FU6>
99.9673

>  <VolSurf_%FU7>
99.7147

>  <VolSurf_%FU8>
97.2224

>  <VolSurf_%FU9>
77.779

>  <VolSurf_%FU10>
25.9261

>  <ID>
19

>  <MOKAID>
20

>  <Clearance Route>
uncertain

>  <PC1>
0.819948

>  <PC2>
3.5539699999999996

$$$$
Almorexant
  -OEChem-08301611272D

 37 40  0     1  0  0  0  0  0999 V2000
    6.9489    0.9829    0.0000 C   0  0  0  0  0  0  0  0  0  0  0  0
    6.0855    1.4875    0.0000 N   0  0  0  0  0  0  0  0  0  0  0  0
    5.2168    0.9922    0.0000 C   0  0  0  0  0  0  0  0  0  0  0  0
    5.2115   -0.0078    0.0000 O   0  0  0  0  0  0  0  0  0  0  0  0
    4.3535    1.4968    0.0000 C   0  0  3  0  0  0  0  0  0  0  0  0
    3.4848    1.0014    0.0000 N   0  0  3  0  0  0  0  0  0  0  0  0
    3.4805   -0.0073    0.0000 C   0  0  0  0  0  0  0  0  0  0  0  0
    2.6039   -0.5053    0.0000 C   0  0  0  0  0  0  0  0  0  0  0  0
    1.7371    0.0000    0.0000 C   0  0  0  0  0  0  0  0  0  0  0  0
    1.7414    1.0089    0.0000 C   0  0  0  0  0  0  0  0  0  0  0  0
    0.8707    1.5185    0.0000 C   0  0  0  0  0  0  0  0  0  0  0  0
    0.0000    1.0089    0.0000 C   0  0  0  0  0  0  0  0  0  0  0  0
   -0.8675    1.5063    0.0000 O   0  0  0  0  0  0  0  0  0  0  0  0
   -1.7320    1.0038    0.0000 C   0  0  0  0  0  0  0  0  0  0  0  0
    0.0000    0.0000    0.0000 C   0  0  0  0  0  0  0  0  0  0  0  0
   -0.8653   -0.5013    0.0000 O   0  0  0  0  0  0  0  0  0  0  0  0
   -0.8638   -1.5013    0.0000 C   0  0  0  0  0  0  0  0  0  0  0  0
    0.8707   -0.4993    0.0000 C   0  0  0  0  0  0  0  0  0  0  0  0
    2.6125    1.5125    0.0000 C   0  0  2  0  0  0  0  0  0  0  0  0
    2.6154    2.5125    0.0000 C   0  0  0  0  0  0  0  0  0  0  0  0
    1.7508    3.0150    0.0000 C   0  0  0  0  0  0  0  0  0  0  0  0
    1.7538    4.0150    0.0000 C   0  0  0  0  0  0  0  0  0  0  0  0
    0.8832    4.5176    0.0000 C   0  0  0  0  0  0  0  0  0  0  0  0
    0.8861    5.5176    0.0000 C   0  0  0  0  0  0  0  0  0  0  0  0
    1.7507    6.0202    0.0000 C   0  0  0  0  0  0  0  0  0  0  0  0
    2.6212    5.5176    0.0000 C   0  0  0  0  0  0  0  0  0  0  0  0
    2.6272    4.5125    0.0000 C   0  0  0  0  0  0  0  0  0  0  0  0
    1.7492    7.0202    0.0000 C   0  0  0  0  0  0  0  0  0  0  0  0
    0.7492    7.0187    0.0000 F   0  0  0  0  0  0  0  0  0  0  0  0
    2.7492    7.0217    0.0000 F   0  0  0  0  0  0  0  0  0  0  0  0
    1.7477    8.0202    0.0000 F   0  0  0  0  0  0  0  0  0  0  0  0
    4.3588    2.4968    0.0000 C   0  0  0  0  0  0  0  0  0  0  0  0
    3.4895    3.0014    0.0000 C   0  0  0  0  0  0  0  0  0  0  0  0
    3.4948    4.0015    0.0000 C   0  0  0  0  0  0  0  0  0  0  0  0
    4.3606    4.5019    0.0000 C   0  0  0  0  0  0  0  0  0  0  0  0
    5.2299    3.9972    0.0000 C   0  0  0  0  0  0  0  0  0  0  0  0
    5.2334    2.9921    0.0000 C   0  0  0  0  0  0  0  0  0  0  0  0
  1  2  1  0  0  0  0
  2  3  1  0  0  0  0
  3  4  2  0  0  0  0
  3  5  1  0  0  0  0
  5  6  1  0  0  0  0
  6 19  1  0  0  0  0
  6  7  1  0  0  0  0
  7  8  1  0  0  0  0
  8  9  1  0  0  0  0
  9 18  1  0  0  0  0
  9 10  2  0  0  0  0
 10 11  1  0  0  0  0
 11 12  2  0  0  0  0
 12 13  1  0  0  0  0
 13 14  1  0  0  0  0
 12 15  1  0  0  0  0
 15 16  1  0  0  0  0
 16 17  1  0  0  0  0
 15 18  2  0  0  0  0
 10 19  1  0  0  0  0
 19 20  1  6  0  0  0
 20 21  1  0  0  0  0
 21 22  1  0  0  0  0
 22 27  1  0  0  0  0
 22 23  2  0  0  0  0
 23 24  1  0  0  0  0
 24 25  2  0  0  0  0
 25 26  1  0  0  0  0
 26 27  2  0  0  0  0
 25 28  1  0  0  0  0
 28 29  1  0  0  0  0
 28 30  1  0  0  0  0
 28 31  1  0  0  0  0
  5 32  1  0  0  0  0
 32 37  1  0  0  0  0
 32 33  2  0  0  0  0
 33 34  1  0  0  0  0
 34 35  2  0  0  0  0
 35 36  1  0  0  0  0
 36 37  2  0  0  0  0
M  END
>  <Name>
Almorexant

>  <CAS #>
871224-64-5

>  <human Clearance (mL/min/kg)>
10.2

>  <Primary mechanism (metabolic, biliary or renal)>
metabolic

>  <seqId>
32.0

>  <Code (mechanism and clearance degree index)>
M1

>  < Five M1 and R1 test groups>
M1_5

>  <formamide>
0

>  <prodrug phosphates>
0

>  <VolSurf_V>
1057.25

>  <VolSurf_S>
658.858

>  <VolSurf_R>
1.60467

>  <VolSurf_G>
1.50413

>  <VolSurf_IW1>
0.0466629

>  <VolSurf_IW2>
0.135846

>  <VolSurf_IW3>
0.286483

>  <VolSurf_IW4>
1.00249

>  <VolSurf_ID1>
0.0261285

>  <VolSurf_ID2>
0.0510073

>  <VolSurf_ID3>
0.0658971

>  <VolSurf_ID4>
0.084763

>  <VolSurf_HL1>
1.71164

>  <VolSurf_HL2>
0.975248

>  <VolSurf_A>
3.87785

>  <VolSurf_CP>
1.22819

>  <VolSurf_POL>
52.789

>  <VolSurf_MW>
512.563

>  <VolSurf_FLEX>
2.7879

>  <VolSurf_FLEX_RB>
0.232325

>  <VolSurf_NCC>
0.0

>  <VolSurf_LOGP n-Oct>
5.531

>  <VolSurf_LOGP c-Hex>
4.607

>  <VolSurf_PSA>
60.3

>  <VolSurf_HSA>
598.558

>  <VolSurf_PSAR>
0.091522

>  <VolSurf_PHSAR>
0.100742

>  <VolSurf_LgD5>
5.085

>  <VolSurf_LgD6>
5.45936

>  <VolSurf_LgD7>
5.52328

>  <VolSurf_LgD7.5>
5.52854

>  <VolSurf_LgD8>
5.53022

>  <VolSurf_LgD9>
5.53091

>  <VolSurf_LgD10>
5.53082

>  <VolSurf_AUS7.4>
1.99996

>  <VolSurf_%FU4>
5.2795

>  <VolSurf_%FU5>
35.7895

>  <VolSurf_%FU6>
84.788

>  <VolSurf_%FU7>
98.2375

>  <VolSurf_%FU8>
99.8205

>  <VolSurf_%FU9>
99.9781

>  <VolSurf_%FU10>
99.9586

>  <ID>
20

>  <MOKAID>
21

>  <Clearance Route>
metabolic

>  <PC1>
5.67185

>  <PC2>
-3.17328

$$$$
Alosetron
  -OEChem-08301611272D

 22 25  0     0  0  0  0  0  0999 V2000
    1.6067   -3.4781    0.0000 C   0  0  0  0  0  0  0  0  0  0  0  0
    0.6067   -3.4706    0.0000 C   0  0  0  0  0  0  0  0  0  0  0  0
    0.0110   -4.2755    0.0000 N   0  0  0  0  0  0  0  0  0  0  0  0
   -0.9396   -3.9598    0.0000 C   0  0  0  0  0  0  0  0  0  0  0  0
   -0.9311   -2.9553    0.0000 N   0  0  0  0  0  0  0  0  0  0  0  0
    0.0239   -2.6580    0.0000 C   0  0  0  0  0  0  0  0  0  0  0  0
    0.3417   -1.7098    0.0000 C   0  0  0  0  0  0  0  0  0  0  0  0
   -0.3205   -0.9605    0.0000 N   0  0  0  0  0  0  0  0  0  0  0  0
    0.0000    0.0000    0.0000 C   0  0  0  0  0  0  0  0  0  0  0  0
   -0.6715    0.7607    0.0000 C   0  0  0  0  0  0  0  0  0  0  0  0
   -1.6599    0.5538    0.0000 C   0  0  0  0  0  0  0  0  0  0  0  0
   -1.9803   -0.4068    0.0000 C   0  0  0  0  0  0  0  0  0  0  0  0
   -1.3124   -1.1604    0.0000 C   0  0  0  0  0  0  0  0  0  0  0  0
   -1.6302   -2.1086    0.0000 O   0  0  0  0  0  0  0  0  0  0  0  0
   -2.9803   -0.4033    0.0000 C   0  0  0  0  0  0  0  0  0  0  0  0
   -3.6518   -1.1492    0.0000 C   0  0  0  0  0  0  0  0  0  0  0  0
   -4.6369   -0.9329    0.0000 C   0  0  0  0  0  0  0  0  0  0  0  0
   -4.9434    0.0258    0.0000 C   0  0  0  0  0  0  0  0  0  0  0  0
   -4.2648    0.7681    0.0000 C   0  0  0  0  0  0  0  0  0  0  0  0
   -3.2868    0.5554    0.0000 C   0  0  0  0  0  0  0  0  0  0  0  0
   -2.4768    1.1478    0.0000 N   0  0  0  0  0  0  0  0  0  0  0  0
   -2.4782    2.1478    0.0000 C   0  0  0  0  0  0  0  0  0  0  0  0
  1  2  1  0  0  0  0
  2  6  2  0  0  0  0
  2  3  1  0  0  0  0
  3  4  1  0  0  0  0
  4  5  2  0  0  0  0
  5  6  1  0  0  0  0
  6  7  1  0  0  0  0
  7  8  1  0  0  0  0
  8 13  1  0  0  0  0
  8  9  1  0  0  0  0
  9 10  1  0  0  0  0
 10 11  1  0  0  0  0
 11 21  1  0  0  0  0
 11 12  2  0  0  0  0
 12 13  1  0  0  0  0
 13 14  2  0  0  0  0
 12 15  1  0  0  0  0
 15 20  2  0  0  0  0
 15 16  1  0  0  0  0
 16 17  2  0  0  0  0
 17 18  1  0  0  0  0
 18 19  2  0  0  0  0
 19 20  1  0  0  0  0
 20 21  1  0  0  0  0
 21 22  1  0  0  0  0
M  END
>  <Name>
Alosetron

>  <CAS #>
122852-42-0

>  <human Clearance (mL/min/kg)>
8.7

>  <Primary mechanism (metabolic, biliary or renal)>
metabolic

>  <seqId>
34.0

>  <Code (mechanism and clearance degree index)>
M1

>  < Five M1 and R1 test groups>
M1_4

>  <formamide>
0

>  <prodrug phosphates>
0

>  <VolSurf_V>
672.125

>  <VolSurf_S>
463.868

>  <VolSurf_R>
1.44896

>  <VolSurf_G>
1.39771

>  <VolSurf_IW1>
0.0548979

>  <VolSurf_IW2>
0.215348

>  <VolSurf_IW3>
0.500899

>  <VolSurf_IW4>
0.848063

>  <VolSurf_ID1>
0.0388361

>  <VolSurf_ID2>
0.0461759

>  <VolSurf_ID3>
0.0707652

>  <VolSurf_ID4>
0.0933969

>  <VolSurf_HL1>
0.769231

>  <VolSurf_HL2>
0.494792

>  <VolSurf_A>
3.24459

>  <VolSurf_CP>
4.72785

>  <VolSurf_POL>
33.073

>  <VolSurf_MW>
294.351

>  <VolSurf_FLEX>
0.797326

>  <VolSurf_FLEX_RB>
0.199332

>  <VolSurf_NCC>
0.0

>  <VolSurf_LOGP n-Oct>
1.421

>  <VolSurf_LOGP c-Hex>
0.939

>  <VolSurf_PSA>
47.75

>  <VolSurf_HSA>
416.118

>  <VolSurf_PSAR>
0.102939

>  <VolSurf_PHSAR>
0.114751

>  <VolSurf_LgD5>
-0.129852

>  <VolSurf_LgD6>
0.768809

>  <VolSurf_LgD7>
1.29089

>  <VolSurf_LgD7.5>
1.3755

>  <VolSurf_LgD8>
1.40609

>  <VolSurf_LgD9>
1.41947

>  <VolSurf_LgD10>
1.42071

>  <VolSurf_AUS7.4>
1.94688

>  <VolSurf_%FU4>
0.285357

>  <VolSurf_%FU5>
2.78212

>  <VolSurf_%FU6>
22.25

>  <VolSurf_%FU7>
74.1049

>  <VolSurf_%FU8>
96.6233

>  <VolSurf_%FU9>
99.6486

>  <VolSurf_%FU10>
99.9332

>  <ID>
21

>  <MOKAID>
22

>  <Clearance Route>
metabolic

>  <PC1>
2.7717099999999997

>  <PC2>
0.361825

$$$$
Alprazolam
  -OEChem-08301611272D

 22 25  0     0  0  0  0  0  0999 V2000
    0.8252    3.4285    0.0000 C   0  0  0  0  0  0  0  0  0  0  0  0
    1.7770    3.1217    0.0000 C   0  0  0  0  0  0  0  0  0  0  0  0
    2.5897    3.7152    0.0000 N   0  0  0  0  0  0  0  0  0  0  0  0
    3.4052    3.1254    0.0000 N   0  0  0  0  0  0  0  0  0  0  0  0
    3.0964    2.1676    0.0000 C   0  0  0  0  0  0  0  0  0  0  0  0
    3.7309    1.3795    0.0000 C   0  0  0  0  0  0  0  0  0  0  0  0
    3.5149    0.3951    0.0000 N   0  0  0  0  0  0  0  0  0  0  0  0
    2.6074   -0.0433    0.0000 C   0  0  0  0  0  0  0  0  0  0  0  0
    2.6118   -1.0433    0.0000 C   0  0  0  0  0  0  0  0  0  0  0  0
    3.4860   -1.5395    0.0000 C   0  0  0  0  0  0  0  0  0  0  0  0
    3.4904   -2.5395    0.0000 C   0  0  0  0  0  0  0  0  0  0  0  0
    2.6295   -3.0484    0.0000 C   0  0  0  0  0  0  0  0  0  0  0  0
    1.7553   -2.5522    0.0000 C   0  0  0  0  0  0  0  0  0  0  0  0
    1.7420   -1.5471    0.0000 C   0  0  0  0  0  0  0  0  0  0  0  0
    1.6936    0.3883    0.0000 C   0  0  0  0  0  0  0  0  0  0  0  0
    0.9625   -0.2980    0.0000 C   0  0  0  0  0  0  0  0  0  0  0  0
    0.0000    0.0000    0.0000 C   0  0  0  0  0  0  0  0  0  0  0  0
   -0.7330   -0.6802    0.0000 Cl  0  0  0  0  0  0  0  0  0  0  0  0
   -0.2249    0.9801    0.0000 C   0  0  0  0  0  0  0  0  0  0  0  0
    0.5130    1.6623    0.0000 C   0  0  0  0  0  0  0  0  0  0  0  0
    1.4689    1.3684    0.0000 C   0  0  0  0  0  0  0  0  0  0  0  0
    2.0900    2.1653    0.0000 N   0  0  0  0  0  0  0  0  0  0  0  0
  1  2  1  0  0  0  0
  2 22  1  0  0  0  0
  2  3  2  0  0  0  0
  3  4  1  0  0  0  0
  4  5  2  0  0  0  0
  5 22  1  0  0  0  0
  5  6  1  0  0  0  0
  6  7  1  0  0  0  0
  7  8  2  0  0  0  0
  8  9  1  0  0  0  0
  9 14  2  0  0  0  0
  9 10  1  0  0  0  0
 10 11  2  0  0  0  0
 11 12  1  0  0  0  0
 12 13  2  0  0  0  0
 13 14  1  0  0  0  0
  8 15  1  0  0  0  0
 15 21  2  0  0  0  0
 15 16  1  0  0  0  0
 16 17  2  0  0  0  0
 17 18  1  0  0  0  0
 17 19  1  0  0  0  0
 19 20  2  0  0  0  0
 20 21  1  0  0  0  0
 21 22  1  0  0  0  0
M  END
>  <Name>
Alprazolam

>  <CAS #>
28981-97-7

>  <human Clearance (mL/min/kg)>
0.74

>  <Primary mechanism (metabolic, biliary or renal)>
metabolic

>  <seqId>
36.0

>  <Code (mechanism and clearance degree index)>
M1

>  < Five M1 and R1 test groups>
M1_1

>  <formamide>
0

>  <prodrug phosphates>
0

>  <VolSurf_V>
657.5

>  <VolSurf_S>
450.617

>  <VolSurf_R>
1.45911

>  <VolSurf_G>
1.36801

>  <VolSurf_IW1>
0.12194

>  <VolSurf_IW2>
0.458545

>  <VolSurf_IW3>
1.05903

>  <VolSurf_IW4>
1.4175

>  <VolSurf_ID1>
0.0448295

>  <VolSurf_ID2>
0.056747

>  <VolSurf_ID3>
0.0453253

>  <VolSurf_ID4>
0.0707019

>  <VolSurf_HL1>
0.764877

>  <VolSurf_HL2>
0.562771

>  <VolSurf_A>
5.86625

>  <VolSurf_CP>
4.32566

>  <VolSurf_POL>
33.928

>  <VolSurf_MW>
308.765

>  <VolSurf_FLEX>
0.2496

>  <VolSurf_FLEX_RB>
0.1248

>  <VolSurf_NCC>
0.0

>  <VolSurf_LOGP n-Oct>
1.968

>  <VolSurf_LOGP c-Hex>
3.738

>  <VolSurf_PSA>
40.9

>  <VolSurf_HSA>
409.717

>  <VolSurf_PSAR>
0.0907645

>  <VolSurf_PHSAR>
0.0998251

>  <VolSurf_LgD5>
0.70923

>  <VolSurf_LgD6>
1.54419

>  <VolSurf_LgD7>
1.90178

>  <VolSurf_LgD7.5>
1.94595

>  <VolSurf_LgD8>
1.96091

>  <VolSurf_LgD9>
1.96729

>  <VolSurf_LgD10>
1.96793

>  <VolSurf_AUS7.4>
1.97564

>  <VolSurf_%FU4>
0.41218

>  <VolSurf_%FU5>
5.48242

>  <VolSurf_%FU6>
37.6676

>  <VolSurf_%FU7>
85.8525

>  <VolSurf_%FU8>
98.3795

>  <VolSurf_%FU9>
99.8356

>  <VolSurf_%FU10>
99.9835

>  <ID>
22

>  <MOKAID>
23

>  <Clearance Route>
metabolic

>  <PC1>
4.04005

>  <PC2>
1.5712700000000002

$$$$
Alprenolol
  -OEChem-08301611272D

 18 18  0     1  0  0  0  0  0999 V2000
    5.1918   -5.0050    0.0000 C   0  0  0  0  0  0  0  0  0  0  0  0
    4.3265   -4.5038    0.0000 C   0  0  0  0  0  0  0  0  0  0  0  0
    3.4598   -5.0025    0.0000 C   0  0  0  0  0  0  0  0  0  0  0  0
    4.3280   -3.5038    0.0000 N   0  0  0  0  0  0  0  0  0  0  0  0
    3.4627   -3.0025    0.0000 C   0  0  0  0  0  0  0  0  0  0  0  0
    3.4641   -2.0025    0.0000 C   0  0  3  0  0  0  0  0  0  0  0  0
    4.3309   -1.5038    0.0000 O   0  0  0  0  0  0  0  0  0  0  0  0
    2.5988   -1.5013    0.0000 C   0  0  0  0  0  0  0  0  0  0  0  0
    2.6003   -0.5013    0.0000 O   0  0  0  0  0  0  0  0  0  0  0  0
    1.7350    0.0000    0.0000 C   0  0  0  0  0  0  0  0  0  0  0  0
    0.8675   -0.4975    0.0000 C   0  0  0  0  0  0  0  0  0  0  0  0
    0.0000    0.0000    0.0000 C   0  0  0  0  0  0  0  0  0  0  0  0
   -0.0000    1.0052    0.0000 C   0  0  0  0  0  0  0  0  0  0  0  0
    0.8675    1.5129    0.0000 C   0  0  0  0  0  0  0  0  0  0  0  0
    1.7350    1.0052    0.0000 C   0  0  0  0  0  0  0  0  0  0  0  0
    2.6025    1.5026    0.0000 C   0  0  0  0  0  0  0  0  0  0  0  0
    2.6054    2.5026    0.0000 C   0  0  0  0  0  0  0  0  0  0  0  0
    3.4729    3.0001    0.0000 C   0  0  0  0  0  0  0  0  0  0  0  0
  1  2  1  0  0  0  0
  2  3  1  0  0  0  0
  2  4  1  0  0  0  0
  4  5  1  0  0  0  0
  5  6  1  0  0  0  0
  6  7  1  0  0  0  0
  6  8  1  0  0  0  0
  8  9  1  0  0  0  0
  9 10  1  0  0  0  0
 10 15  2  0  0  0  0
 10 11  1  0  0  0  0
 11 12  2  0  0  0  0
 12 13  1  0  0  0  0
 13 14  2  0  0  0  0
 14 15  1  0  0  0  0
 15 16  1  0  0  0  0
 16 17  1  0  0  0  0
 17 18  2  0  0  0  0
M  END
>  <Name>
Alprenolol

>  <CAS #>
13655-52-2

>  <human Clearance (mL/min/kg)>
15.0

>  <Primary mechanism (metabolic, biliary or renal)>
metabolic

>  <seqId>
37.0

>  <Code (mechanism and clearance degree index)>
M1

>  < Five M1 and R1 test groups>
M1_5

>  <formamide>
0

>  <prodrug phosphates>
0

>  <VolSurf_V>
684.0

>  <VolSurf_S>
481.832

>  <VolSurf_R>
1.41958

>  <VolSurf_G>
1.45399

>  <VolSurf_IW1>
0.0501176

>  <VolSurf_IW2>
0.27498

>  <VolSurf_IW3>
0.601667

>  <VolSurf_IW4>
0.831396

>  <VolSurf_ID1>
0.0388727

>  <VolSurf_ID2>
0.114514

>  <VolSurf_ID3>
0.250338

>  <VolSurf_ID4>
0.354187

>  <VolSurf_HL1>
1.26885

>  <VolSurf_HL2>
1.65926

>  <VolSurf_A>
5.30398

>  <VolSurf_CP>
0.886517

>  <VolSurf_POL>
32.305

>  <VolSurf_MW>
250.356

>  <VolSurf_FLEX>
1.90143

>  <VolSurf_FLEX_RB>
0.172857

>  <VolSurf_NCC>
1.0

>  <VolSurf_LOGP n-Oct>
2.429

>  <VolSurf_LOGP c-Hex>
0.762

>  <VolSurf_PSA>
55.24

>  <VolSurf_HSA>
426.592

>  <VolSurf_PSAR>
0.114646

>  <VolSurf_PHSAR>
0.129491

>  <VolSurf_LgD5>
-0.946326

>  <VolSurf_LgD6>
-0.568679

>  <VolSurf_LgD7>
0.262009

>  <VolSurf_LgD7.5>
0.740261

>  <VolSurf_LgD8>
1.21667

>  <VolSurf_LgD9>
2.02449

>  <VolSurf_LgD10>
2.36684

>  <VolSurf_AUS7.4>
0.362752

>  <VolSurf_%FU4>
6.49557E-4

>  <VolSurf_%FU5>
0.00649519

>  <VolSurf_%FU6>
0.064914

>  <VolSurf_%FU7>
0.645369

>  <VolSurf_%FU8>
6.09942

>  <VolSurf_%FU9>
39.3778

>  <VolSurf_%FU10>
86.6588

>  <ID>
23

>  <MOKAID>
24

>  <Clearance Route>
metabolic

>  <PC1>
1.34097

>  <PC2>
1.02165

$$$$
Alprostadil
  -OEChem-08301611272D

 25 25  0     1  0  0  0  0  0999 V2000
    7.0866   -0.4976    0.0000 C   0  0  0  0  0  0  0  0  0  0  0  0
    6.3443    0.1726    0.0000 C   0  0  0  0  0  0  0  0  0  0  0  0
    5.3929   -0.1352    0.0000 C   0  0  0  0  0  0  0  0  0  0  0  0
    4.6506    0.5349    0.0000 C   0  0  0  0  0  0  0  0  0  0  0  0
    3.6991    0.2272    0.0000 C   0  0  0  0  0  0  0  0  0  0  0  0
    2.9569    0.8973    0.0000 C   0  0  1  0  0  0  0  0  0  0  0  0
    2.0054    0.5895    0.0000 C   0  0  0  0  0  0  0  0  0  0  0  0
    1.2632    1.2597    0.0000 C   0  0  0  0  0  0  0  0  0  0  0  0
    0.3117    0.9519    0.0000 C   0  0  1  0  0  0  0  0  0  0  0  0
    0.0000    0.0000    0.0000 C   0  0  1  0  0  0  0  0  0  0  0  0
   -1.0014    0.0000    0.0000 C   0  0  0  0  0  0  0  0  0  0  0  0
   -1.3079    0.9519    0.0000 C   0  0  0  0  0  0  0  0  0  0  0  0
   -2.2591    1.2606    0.0000 O   0  0  0  0  0  0  0  0  0  0  0  0
   -0.5007    1.5426    0.0000 C   0  0  2  0  0  0  0  0  0  0  0  0
   -0.5022    2.5426    0.0000 C   0  0  0  0  0  0  0  0  0  0  0  0
   -1.3690    3.0413    0.0000 C   0  0  0  0  0  0  0  0  0  0  0  0
   -1.3705    4.0413    0.0000 C   0  0  0  0  0  0  0  0  0  0  0  0
   -2.2373    4.5399    0.0000 C   0  0  0  0  0  0  0  0  0  0  0  0
   -2.2389    5.5399    0.0000 C   0  0  0  0  0  0  0  0  0  0  0  0
   -3.1057    6.0386    0.0000 C   0  0  0  0  0  0  0  0  0  0  0  0
   -3.1072    7.0386    0.0000 C   0  0  0  0  0  0  0  0  0  0  0  0
   -2.2419    7.5399    0.0000 O   0  0  0  0  0  0  0  0  0  0  0  0
   -3.9740    7.5373    0.0000 O   0  0  0  0  0  0  0  0  0  0  0  0
    0.5869   -0.8097    0.0000 O   0  0  0  0  0  0  0  0  0  0  0  0
    3.1661    1.8752    0.0000 O   0  0  0  0  0  0  0  0  0  0  0  0
  1  2  1  0  0  0  0
  2  3  1  0  0  0  0
  3  4  1  0  0  0  0
  4  5  1  0  0  0  0
  5  6  1  0  0  0  0
  6  7  1  0  0  0  0
  7  8  2  0  0  0  0
  9  8  1  1  0  0  0
  9 14  1  0  0  0  0
  9 10  1  0  0  0  0
 10 11  1  0  0  0  0
 11 12  1  0  0  0  0
 12 13  2  0  0  0  0
 12 14  1  0  0  0  0
 14 15  1  6  0  0  0
 15 16  1  0  0  0  0
 16 17  1  0  0  0  0
 17 18  1  0  0  0  0
 18 19  1  0  0  0  0
 19 20  1  0  0  0  0
 20 21  1  0  0  0  0
 21 22  2  0  0  0  0
 21 23  1  0  0  0  0
 10 24  1  6  0  0  0
  6 25  1  1  0  0  0
M  END
>  <Name>
Alprostadil

>  <CAS #>
745-65-3

>  <human Clearance (mL/min/kg)>
45.4

>  <Primary mechanism (metabolic, biliary or renal)>
metabolic

>  <seqId>
38.0

>  <Code (mechanism and clearance degree index)>
M1

>  < Five M1 and R1 test groups>
M1_3

>  <formamide>
0

>  <prodrug phosphates>
0

>  <VolSurf_V>
885.75

>  <VolSurf_S>
636.478

>  <VolSurf_R>
1.39164

>  <VolSurf_G>
1.70466

>  <VolSurf_IW1>
0.113331

>  <VolSurf_IW2>
0.251638

>  <VolSurf_IW3>
0.521845

>  <VolSurf_IW4>
0.999835

>  <VolSurf_ID1>
0.0697551

>  <VolSurf_ID2>
0.0982074

>  <VolSurf_ID3>
0.117767

>  <VolSurf_ID4>
0.197283

>  <VolSurf_HL1>
10.1656

>  <VolSurf_HL2>
12.8281

>  <VolSurf_A>
6.38652

>  <VolSurf_CP>
0.14818

>  <VolSurf_POL>
37.693

>  <VolSurf_MW>
353.473

>  <VolSurf_FLEX>
3.07051

>  <VolSurf_FLEX_RB>
0.191907

>  <VolSurf_NCC>
1.0

>  <VolSurf_LOGP n-Oct>
3.494

>  <VolSurf_LOGP c-Hex>
-3.132

>  <VolSurf_PSA>
103.65

>  <VolSurf_HSA>
532.828

>  <VolSurf_PSAR>
0.162849

>  <VolSurf_PHSAR>
0.194528

>  <VolSurf_LgD5>
3.05341

>  <VolSurf_LgD6>
2.22789

>  <VolSurf_LgD7>
1.27916

>  <VolSurf_LgD7.5>
0.844906

>  <VolSurf_LgD8>
0.501908

>  <VolSurf_LgD9>
0.199523

>  <VolSurf_LgD10>
0.153436

>  <VolSurf_AUS7.4>
0.0

>  <VolSurf_%FU4>
85.033

>  <VolSurf_%FU5>
36.2301

>  <VolSurf_%FU6>
5.37595

>  <VolSurf_%FU7>
0.564928

>  <VolSurf_%FU8>
0.0567815

>  <VolSurf_%FU9>
0.00568105

>  <VolSurf_%FU10>
5.68134E-4

>  <ID>
24

>  <MOKAID>
25

>  <Clearance Route>
possible billary

>  <PC1>
0.443633

>  <PC2>
-1.11461

$$$$
Amantadine
  -OEChem-08301611272D

 11 13  0     0  0  0  0  0  0999 V2000
    1.8206    3.2925    0.0000 N   0  0  0  0  0  0  0  0  0  0  0  0
    1.7946    2.2928    0.0000 C   0  0  0  0  0  0  0  0  0  0  0  0
    1.0593    1.4236    0.0000 C   0  0  0  0  0  0  0  0  0  0  0  0
    1.0628    0.2973    0.0000 C   0  0  0  0  0  0  0  0  0  0  0  0
    2.0572   -0.0972    0.0000 C   0  0  0  0  0  0  0  0  0  0  0  0
    2.7750    0.8067    0.0000 C   0  0  0  0  0  0  0  0  0  0  0  0
    1.7870    0.5617    0.0000 C   0  0  0  0  0  0  0  0  0  0  0  0
    0.8471    0.9032    0.0000 C   0  0  0  0  0  0  0  0  0  0  0  0
    0.0000    0.0000    0.0000 C   0  0  0  0  0  0  0  0  0  0  0  0
    0.8413    1.9596    0.0000 C   0  0  0  0  0  0  0  0  0  0  0  0
    2.7828    1.8886    0.0000 C   0  0  0  0  0  0  0  0  0  0  0  0
  1  2  1  0  0  0  0
  2 10  1  0  0  0  0
  2 11  1  0  0  0  0
  2  3  1  0  0  0  0
  3  4  1  0  0  0  0
  4  9  1  0  0  0  0
  4  5  1  0  0  0  0
  5  6  1  0  0  0  0
  6  7  1  0  0  0  0
  7  8  1  0  0  0  0
  8  9  1  0  0  0  0
  8 10  1  0  0  0  0
  6 11  1  0  0  0  0
M  END
>  <Name>
Amantadine

>  <CAS #>
768-94-5

>  <human Clearance (mL/min/kg)>
4.8

>  <Primary mechanism (metabolic, biliary or renal)>
renal

>  <seqId>
39.0

>  <Code (mechanism and clearance degree index)>
R1

>  < Five M1 and R1 test groups>
R1_4

>  <formamide>
0

>  <prodrug phosphates>
0

>  <VolSurf_V>
389.125

>  <VolSurf_S>
270.842

>  <VolSurf_R>
1.43672

>  <VolSurf_G>
1.07711

>  <VolSurf_IW1>
0.203913

>  <VolSurf_IW2>
0.72063

>  <VolSurf_IW3>
1.2725

>  <VolSurf_IW4>
1.59967

>  <VolSurf_ID1>
0.0675212

>  <VolSurf_ID2>
0.110523

>  <VolSurf_ID3>
0.0

>  <VolSurf_ID4>
0.0

>  <VolSurf_HL1>
2.6746

>  <VolSurf_HL2>
37.0

>  <VolSurf_A>
5.55526

>  <VolSurf_CP>
0.595995

>  <VolSurf_POL>
20.076

>  <VolSurf_MW>
152.257

>  <VolSurf_FLEX>
6.28558E-8

>  <VolSurf_FLEX_RB>
6.28558E-8

>  <VolSurf_NCC>
1.0

>  <VolSurf_LOGP n-Oct>
2.471

>  <VolSurf_LOGP c-Hex>
2.155

>  <VolSurf_PSA>
34.61

>  <VolSurf_HSA>
236.232

>  <VolSurf_PSAR>
0.127787

>  <VolSurf_PHSAR>
0.146508

>  <VolSurf_LgD5>
-1.02383

>  <VolSurf_LgD6>
-0.979856

>  <VolSurf_LgD7>
-0.687035

>  <VolSurf_LgD7.5>
-0.349181

>  <VolSurf_LgD8>
0.0828046

>  <VolSurf_LgD9>
1.0371

>  <VolSurf_LgD10>
1.91044

>  <VolSurf_AUS7.4>
0.0

>  <VolSurf_%FU4>
3.79004E-5

>  <VolSurf_%FU5>
3.79003E-4

>  <VolSurf_%FU6>
0.0037899

>  <VolSurf_%FU7>
0.037886

>  <VolSurf_%FU8>
0.377573

>  <VolSurf_%FU9>
3.65164

>  <VolSurf_%FU10>
27.4839

>  <ID>
25

>  <MOKAID>
26

>  <Clearance Route>
uncertain

>  <PC1>
1.0020799999999999

>  <PC2>
4.66847

$$$$
Amezinium
  -OEChem-08301611272D

 15 16  0     0  0  0  0  0  0999 V2000
    0.8674    0.4976    0.0000 C   0  0  0  0  0  0  0  0  0  0  0  0
    0.0000    0.0000    0.0000 C   0  0  0  0  0  0  0  0  0  0  0  0
   -0.8674    0.4976    0.0000 C   0  0  0  0  0  0  0  0  0  0  0  0
   -0.8674    1.5027    0.0000 C   0  0  0  0  0  0  0  0  0  0  0  0
   -0.0000    2.0102    0.0000 N   0  3  0  0  0  0  0  0  0  0  0  0
    0.8674    1.5027    0.0000 N   0  0  0  0  0  0  0  0  0  0  0  0
   -0.0000    3.0102    0.0000 C   0  0  0  0  0  0  0  0  0  0  0  0
   -0.8720    3.5102    0.0000 C   0  0  0  0  0  0  0  0  0  0  0  0
   -0.8721    4.5103    0.0000 C   0  0  0  0  0  0  0  0  0  0  0  0
   -0.0089    5.0153    0.0000 C   0  0  0  0  0  0  0  0  0  0  0  0
    0.8631    4.5153    0.0000 C   0  0  0  0  0  0  0  0  0  0  0  0
    0.8720    3.5102    0.0000 C   0  0  0  0  0  0  0  0  0  0  0  0
   -1.7349    2.0002    0.0000 O   0  0  0  0  0  0  0  0  0  0  0  0
   -2.5994    1.4977    0.0000 C   0  0  0  0  0  0  0  0  0  0  0  0
    0.0000   -1.0000    0.0000 N   0  0  0  0  0  0  0  0  0  0  0  0
  1  6  2  0  0  0  0
  1  2  1  0  0  0  0
  2  3  2  0  0  0  0
  3  4  1  0  0  0  0
  4  5  2  0  0  0  0
  5  6  1  0  0  0  0
  5  7  1  0  0  0  0
  7 12  2  0  0  0  0
  7  8  1  0  0  0  0
  8  9  2  0  0  0  0
  9 10  1  0  0  0  0
 10 11  2  0  0  0  0
 11 12  1  0  0  0  0
  4 13  1  0  0  0  0
 13 14  1  0  0  0  0
  2 15  1  0  0  0  0
M  CHG  1   5   1
M  END
>  <Name>
Amezinium

>  <CAS #>
41658-78-0

>  <human Clearance (mL/min/kg)>
5.1

>  <Primary mechanism (metabolic, biliary or renal)>
metabolic

>  <seqId>
41.0

>  <Code (mechanism and clearance degree index)>
M1

>  < Five M1 and R1 test groups>
M1_1

>  <formamide>
0

>  <prodrug phosphates>
0

>  <VolSurf_V>
478.125

>  <VolSurf_S>
341.535

>  <VolSurf_R>
1.39993

>  <VolSurf_G>
1.24132

>  <VolSurf_IW1>
0.0693129

>  <VolSurf_IW2>
0.221684

>  <VolSurf_IW3>
0.772287

>  <VolSurf_IW4>
1.97427

>  <VolSurf_ID1>
0.0510746

>  <VolSurf_ID2>
0.0529083

>  <VolSurf_ID3>
0.0732927

>  <VolSurf_ID4>
0.09418

>  <VolSurf_HL1>
0.481663

>  <VolSurf_HL2>
0.193662

>  <VolSurf_A>
2.76785

>  <VolSurf_CP>
7.15376

>  <VolSurf_POL>
22.082

>  <VolSurf_MW>
202.232

>  <VolSurf_FLEX>
0.37188

>  <VolSurf_FLEX_RB>
0.0929699

>  <VolSurf_NCC>
1.0

>  <VolSurf_LOGP n-Oct>
-0.751

>  <VolSurf_LOGP c-Hex>
-0.058

>  <VolSurf_PSA>
54.41

>  <VolSurf_HSA>
287.125

>  <VolSurf_PSAR>
0.15931

>  <VolSurf_PHSAR>
0.189499

>  <VolSurf_LgD5>
-0.767446

>  <VolSurf_LgD6>
-0.752673

>  <VolSurf_LgD7>
-0.751168

>  <VolSurf_LgD7.5>
-0.751053

>  <VolSurf_LgD8>
-0.751017

>  <VolSurf_LgD9>
-0.751002

>  <VolSurf_LgD10>
-0.751

>  <VolSurf_AUS7.4>
0.0

>  <VolSurf_%FU4>
0.0

>  <VolSurf_%FU5>
0.0

>  <VolSurf_%FU6>
0.0

>  <VolSurf_%FU7>
0.0

>  <VolSurf_%FU8>
0.0

>  <VolSurf_%FU9>
0.0

>  <VolSurf_%FU10>
0.0

>  <ID>
26

>  <MOKAID>
27

>  <Clearance Route>
uncertain

>  <PC1>
-0.12460999999999998

>  <PC2>
2.58575

$$$$
Amifostine
  -OEChem-08301611272D

 12 11  0     0  0  0  0  0  0999 V2000
    0.0000    0.0000    0.0000 C   0  0  0  0  0  0  0  0  0  0  0  0
    1.0000    0.0000    0.0000 S   0  0  0  0  0  0  0  0  0  0  0  0
    1.5000    0.8660    0.0000 P   0  0  0  0  0  0  0  0  0  0  0  0
    0.6340    1.3660    0.0000 O   0  0  0  0  0  0  0  0  0  0  0  0
    2.3660    0.3660    0.0000 O   0  0  0  0  0  0  0  0  0  0  0  0
    2.0000    1.7321    0.0000 O   0  0  0  0  0  0  0  0  0  0  0  0
   -0.5000   -0.8660    0.0000 C   0  0  0  0  0  0  0  0  0  0  0  0
   -1.5000   -0.8660    0.0000 N   0  0  0  0  0  0  0  0  0  0  0  0
   -2.0000   -1.7321    0.0000 C   0  0  0  0  0  0  0  0  0  0  0  0
   -3.0000   -1.7321    0.0000 C   0  0  0  0  0  0  0  0  0  0  0  0
   -3.5000   -2.5981    0.0000 C   0  0  0  0  0  0  0  0  0  0  0  0
   -4.5000   -2.5981    0.0000 N   0  0  0  0  0  0  0  0  0  0  0  0
  1  2  1  0  0  0  0
  2  3  1  0  0  0  0
  3  4  1  0  0  0  0
  3  5  1  0  0  0  0
  3  6  2  0  0  0  0
  1  7  1  0  0  0  0
  7  8  1  0  0  0  0
  8  9  1  0  0  0  0
  9 10  1  0  0  0  0
 10 11  1  0  0  0  0
 11 12  1  0  0  0  0
M  END
>  <Name>
Amifostine

>  <CAS #>
20537-88-6

>  <human Clearance (mL/min/kg)>
30.65

>  <Primary mechanism (metabolic, biliary or renal)>
metabolic

>  <seqId>
43.0

>  <Code (mechanism and clearance degree index)>
M1

>  < Five M1 and R1 test groups>
M1_5

>  <formamide>
0

>  <prodrug phosphates>
0

>  <VolSurf_V>
487.625

>  <VolSurf_S>
376.067

>  <VolSurf_R>
1.29664

>  <VolSurf_G>
1.40633

>  <VolSurf_IW1>
0.0991536

>  <VolSurf_IW2>
0.186425

>  <VolSurf_IW3>
0.360021

>  <VolSurf_IW4>
1.54711

>  <VolSurf_ID1>
0.106857

>  <VolSurf_ID2>
0.176702

>  <VolSurf_ID3>
0.0

>  <VolSurf_ID4>
0.0

>  <VolSurf_HL1>
22.4394

>  <VolSurf_HL2>
159.75

>  <VolSurf_A>
5.05322

>  <VolSurf_CP>
0.0560294

>  <VolSurf_POL>
27.591

>  <VolSurf_MW>
214.223

>  <VolSurf_FLEX>
1.93368

>  <VolSurf_FLEX_RB>
0.24171

>  <VolSurf_NCC>
3.0

>  <VolSurf_LOGP n-Oct>
-1.383

>  <VolSurf_LOGP c-Hex>
-1.63

>  <VolSurf_PSA>
121.17

>  <VolSurf_HSA>
254.897

>  <VolSurf_PSAR>
0.322203

>  <VolSurf_PHSAR>
0.475368

>  <VolSurf_LgD5>
-3.85016

>  <VolSurf_LgD6>
-3.70615

>  <VolSurf_LgD7>
-3.71774

>  <VolSurf_LgD7.5>
-3.77911

>  <VolSurf_LgD8>
-3.92773

>  <VolSurf_LgD9>
-4.50351

>  <VolSurf_LgD10>
-5.07095

>  <VolSurf_AUS7.4>
0.0

>  <VolSurf_%FU4>
0.0

>  <VolSurf_%FU5>
0.0

>  <VolSurf_%FU6>
0.0

>  <VolSurf_%FU7>
0.0

>  <VolSurf_%FU8>
0.0

>  <VolSurf_%FU9>
0.0

>  <VolSurf_%FU10>
0.0

>  <ID>
27

>  <MOKAID>
28

>  <Clearance Route>
renal

>  <PC1>
-3.83494

>  <PC2>
3.7938199999999997

$$$$
Amikacin
  -OEChem-08301611272D

 40 42  0     1  0  0  0  0  0999 V2000
    2.5944    9.5065    0.0000 N   0  0  0  0  0  0  0  0  0  0  0  0
    1.7291    9.0053    0.0000 C   0  0  0  0  0  0  0  0  0  0  0  0
    1.7306    8.0053    0.0000 C   0  0  0  0  0  0  0  0  0  0  0  0
    0.8653    7.5040    0.0000 C   0  0  2  0  0  0  0  0  0  0  0  0
   -0.0015    8.0028    0.0000 O   0  0  0  0  0  0  0  0  0  0  0  0
    0.8667    6.5040    0.0000 C   0  0  0  0  0  0  0  0  0  0  0  0
    0.0014    6.0028    0.0000 O   0  0  0  0  0  0  0  0  0  0  0  0
    1.7335    6.0053    0.0000 N   0  0  0  0  0  0  0  0  0  0  0  0
    1.7349    5.0053    0.0000 C   0  0  2  0  0  0  0  0  0  0  0  0
    0.8703    4.5028    0.0000 C   0  0  0  0  0  0  0  0  0  0  0  0
    0.8674    3.5027    0.0000 C   0  0  2  0  0  0  0  0  0  0  0  0
    0.0007    3.0040    0.0000 N   0  0  0  0  0  0  0  0  0  0  0  0
    1.7379    3.0001    0.0000 C   0  0  1  0  0  0  0  0  0  0  0  0
    1.7350    2.0001    0.0000 O   0  0  0  0  0  0  0  0  0  0  0  0
    0.8675    1.5027    0.0000 C   0  0  1  0  0  0  0  0  0  0  0  0
   -0.0000    2.0104    0.0000 O   0  0  0  0  0  0  0  0  0  0  0  0
   -0.8675    1.5027    0.0000 C   0  0  2  0  0  0  0  0  0  0  0  0
   -1.7350    2.0001    0.0000 C   0  0  0  0  0  0  0  0  0  0  0  0
   -2.5995    1.4976    0.0000 N   0  0  0  0  0  0  0  0  0  0  0  0
   -0.8675    0.4975    0.0000 C   0  0  1  0  0  0  0  0  0  0  0  0
   -1.7328   -0.0038    0.0000 O   0  0  0  0  0  0  0  0  0  0  0  0
    0.0000    0.0000    0.0000 C   0  0  2  0  0  0  0  0  0  0  0  0
    0.0000   -1.0000    0.0000 O   0  0  0  0  0  0  0  0  0  0  0  0
    0.8675    0.4975    0.0000 C   0  0  1  0  0  0  0  0  0  0  0  0
    1.7328   -0.0038    0.0000 O   0  0  0  0  0  0  0  0  0  0  0  0
    2.6114    3.4976    0.0000 C   0  0  2  0  0  0  0  0  0  0  0  0
    3.4774    2.9976    0.0000 O   0  0  0  0  0  0  0  0  0  0  0  0
    2.6054    4.5027    0.0000 C   0  0  1  0  0  0  0  0  0  0  0  0
    3.4700    5.0052    0.0000 O   0  0  0  0  0  0  0  0  0  0  0  0
    4.3375    4.5078    0.0000 C   0  0  1  0  0  0  0  0  0  0  0  0
    4.3375    3.5027    0.0000 O   0  0  0  0  0  0  0  0  0  0  0  0
    5.2138    3.0104    0.0000 C   0  0  2  0  0  0  0  0  0  0  0  0
    5.2227    2.0104    0.0000 C   0  0  0  0  0  0  0  0  0  0  0  0
    6.0931    1.5181    0.0000 O   0  0  0  0  0  0  0  0  0  0  0  0
    6.0814    3.5181    0.0000 C   0  0  1  0  0  0  0  0  0  0  0  0
    6.9511    3.0245    0.0000 O   0  0  0  0  0  0  0  0  0  0  0  0
    6.0726    4.5181    0.0000 C   0  0  2  0  0  0  0  0  0  0  0  0
    6.9356    5.0232    0.0000 N   0  0  0  0  0  0  0  0  0  0  0  0
    5.2050    5.0155    0.0000 C   0  0  1  0  0  0  0  0  0  0  0  0
    5.2006    6.0155    0.0000 O   0  0  0  0  0  0  0  0  0  0  0  0
  1  2  1  0  0  0  0
  2  3  1  0  0  0  0
  3  4  1  0  0  0  0
  4  5  1  1  0  0  0
  4  6  1  0  0  0  0
  6  7  2  0  0  0  0
  6  8  1  0  0  0  0
  9  8  1  1  0  0  0
  9 28  1  0  0  0  0
  9 10  1  0  0  0  0
 10 11  1  0  0  0  0
 11 12  1  1  0  0  0
 11 13  1  0  0  0  0
 13 14  1  6  0  0  0
 15 14  1  6  0  0  0
 15 24  1  0  0  0  0
 15 16  1  0  0  0  0
 16 17  1  0  0  0  0
 17 18  1  1  0  0  0
 18 19  1  0  0  0  0
 17 20  1  0  0  0  0
 20 21  1  6  0  0  0
 20 22  1  0  0  0  0
 22 23  1  1  0  0  0
 22 24  1  0  0  0  0
 24 25  1  6  0  0  0
 13 26  1  0  0  0  0
 26 27  1  1  0  0  0
 26 28  1  0  0  0  0
 28 29  1  6  0  0  0
 30 29  1  6  0  0  0
 30 39  1  0  0  0  0
 30 31  1  0  0  0  0
 31 32  1  0  0  0  0
 32 33  1  1  0  0  0
 33 34  1  0  0  0  0
 32 35  1  0  0  0  0
 35 36  1  6  0  0  0
 35 37  1  0  0  0  0
 37 38  1  1  0  0  0
 37 39  1  0  0  0  0
 39 40  1  6  0  0  0
M  END
>  <Name>
Amikacin

>  <CAS #>
37517-28-5

>  <human Clearance (mL/min/kg)>
1.1

>  <Primary mechanism (metabolic, biliary or renal)>
renal

>  <seqId>
44.0

>  <Code (mechanism and clearance degree index)>
R1

>  < Five M1 and R1 test groups>
R1_2

>  <formamide>
0

>  <prodrug phosphates>
0

>  <VolSurf_V>
1045.62

>  <VolSurf_S>
699.901

>  <VolSurf_R>
1.49396

>  <VolSurf_G>
1.66515

>  <VolSurf_IW1>
0.0267317

>  <VolSurf_IW2>
0.0349692

>  <VolSurf_IW3>
0.091968

>  <VolSurf_IW4>
0.202972

>  <VolSurf_ID1>
0.0728737

>  <VolSurf_ID2>
0.146445

>  <VolSurf_ID3>
0.0

>  <VolSurf_ID4>
0.0

>  <VolSurf_HL1>
936.75

>  <VolSurf_HL2>
534.75

>  <VolSurf_A>
6.77334

>  <VolSurf_CP>
8.32797E-4

>  <VolSurf_POL>
56.9881

>  <VolSurf_MW>
587.618

>  <VolSurf_FLEX>
2.59609

>  <VolSurf_FLEX_RB>
0.118004

>  <VolSurf_NCC>
2.0

>  <VolSurf_LOGP n-Oct>
-9.0

>  <VolSurf_LOGP c-Hex>
-9.0

>  <VolSurf_PSA>
362.32

>  <VolSurf_HSA>
337.581

>  <VolSurf_PSAR>
0.517673

>  <VolSurf_PHSAR>
1.07328

>  <VolSurf_LgD5>
-9.0

>  <VolSurf_LgD6>
-9.0

>  <VolSurf_LgD7>
-9.0

>  <VolSurf_LgD7.5>
-9.0

>  <VolSurf_LgD8>
-9.0

>  <VolSurf_LgD9>
-9.0

>  <VolSurf_LgD10>
-9.0

>  <VolSurf_AUS7.4>
0.0

>  <VolSurf_%FU4>
2.64827E-14

>  <VolSurf_%FU5>
2.62997E-10

>  <VolSurf_%FU6>
2.45059E-6

>  <VolSurf_%FU7>
0.0115754

>  <VolSurf_%FU8>
2.17804

>  <VolSurf_%FU9>
27.629

>  <VolSurf_%FU10>
79.7756

>  <ID>
28

>  <MOKAID>
29

>  <Clearance Route>
renal

>  <PC1>
-11.677999999999999

>  <PC2>
-0.8506799999999999

$$$$
Aminohexanoic acid, 6-
  -OEChem-08301611272D

  9  8  0     0  0  0  0  0  0999 V2000
    0.0000    0.0000    0.0000 N   0  0  0  0  0  0  0  0  0  0  0  0
    1.0000    0.0000    0.0000 C   0  0  0  0  0  0  0  0  0  0  0  0
    1.5000    0.8660    0.0000 C   0  0  0  0  0  0  0  0  0  0  0  0
    2.5000    0.8660    0.0000 C   0  0  0  0  0  0  0  0  0  0  0  0
    3.0000    1.7321    0.0000 C   0  0  0  0  0  0  0  0  0  0  0  0
    4.0000    1.7321    0.0000 C   0  0  0  0  0  0  0  0  0  0  0  0
    4.5000    2.5981    0.0000 C   0  0  0  0  0  0  0  0  0  0  0  0
    4.0000    3.4641    0.0000 O   0  0  0  0  0  0  0  0  0  0  0  0
    5.5000    2.5981    0.0000 O   0  0  0  0  0  0  0  0  0  0  0  0
  1  2  1  0  0  0  0
  2  3  1  0  0  0  0
  3  4  1  0  0  0  0
  4  5  1  0  0  0  0
  5  6  1  0  0  0  0
  6  7  1  0  0  0  0
  7  8  2  0  0  0  0
  7  9  1  0  0  0  0
M  END
>  <Name>
Aminohexanoic acid, 6-

>  <CAS #>
60-32-2

>  <human Clearance (mL/min/kg)>
2.5

>  <Primary mechanism (metabolic, biliary or renal)>
renal

>  <seqId>
46.0

>  <Code (mechanism and clearance degree index)>
R1

>  < Five M1 and R1 test groups>
R1_5

>  <formamide>
0

>  <prodrug phosphates>
0

>  <VolSurf_V>
360.875

>  <VolSurf_S>
286.213

>  <VolSurf_R>
1.26086

>  <VolSurf_G>
1.26169

>  <VolSurf_IW1>
0.114569

>  <VolSurf_IW2>
0.223159

>  <VolSurf_IW3>
0.563361

>  <VolSurf_IW4>
1.97555

>  <VolSurf_ID1>
0.0940774

>  <VolSurf_ID2>
0.146388

>  <VolSurf_ID3>
0.0

>  <VolSurf_ID4>
0.0

>  <VolSurf_HL1>
22.8182

>  <VolSurf_HL2>
73.0

>  <VolSurf_A>
3.70075

>  <VolSurf_CP>
0.0815209

>  <VolSurf_POL>
15.174

>  <VolSurf_MW>
131.173

>  <VolSurf_FLEX>
1.16305

>  <VolSurf_FLEX_RB>
0.193841

>  <VolSurf_NCC>
2.0

>  <VolSurf_LOGP n-Oct>
0.162

>  <VolSurf_LOGP c-Hex>
-2.693

>  <VolSurf_PSA>
80.73

>  <VolSurf_HSA>
205.483

>  <VolSurf_PSAR>
0.282063

>  <VolSurf_PHSAR>
0.392879

>  <VolSurf_LgD5>
-2.14313

>  <VolSurf_LgD6>
-2.10201

>  <VolSurf_LgD7>
-2.09758

>  <VolSurf_LgD7.5>
-2.09741

>  <VolSurf_LgD8>
-2.09784

>  <VolSurf_LgD9>
-2.10482

>  <VolSurf_LgD10>
-2.16849

>  <VolSurf_AUS7.4>
0.0

>  <VolSurf_%FU4>
0.0

>  <VolSurf_%FU5>
0.0

>  <VolSurf_%FU6>
0.0

>  <VolSurf_%FU7>
0.0

>  <VolSurf_%FU8>
0.0

>  <VolSurf_%FU9>
0.0

>  <VolSurf_%FU10>
0.0

>  <ID>
29

>  <MOKAID>
30

>  <Clearance Route>
uncertain

>  <PC1>
-1.5205899999999999

>  <PC2>
3.76579

$$$$
Aminosalicylic acid, 5-
  -OEChem-08301611272D

 11 11  0     0  0  0  0  0  0999 V2000
   -1.7350    2.0001    0.0000 N   0  0  0  0  0  0  0  0  0  0  0  0
   -0.8675    1.5027    0.0000 C   0  0  0  0  0  0  0  0  0  0  0  0
   -0.8675    0.4975    0.0000 C   0  0  0  0  0  0  0  0  0  0  0  0
    0.0000    0.0000    0.0000 C   0  0  0  0  0  0  0  0  0  0  0  0
    0.8675    0.4975    0.0000 C   0  0  0  0  0  0  0  0  0  0  0  0
    1.7328   -0.0038    0.0000 O   0  0  0  0  0  0  0  0  0  0  0  0
    0.8675    1.5027    0.0000 C   0  0  0  0  0  0  0  0  0  0  0  0
   -0.0000    2.0104    0.0000 C   0  0  0  0  0  0  0  0  0  0  0  0
    1.7350    2.0001    0.0000 C   0  0  0  0  0  0  0  0  0  0  0  0
    2.5995    1.4976    0.0000 O   0  0  0  0  0  0  0  0  0  0  0  0
    1.7379    3.0001    0.0000 O   0  0  0  0  0  0  0  0  0  0  0  0
  1  2  1  0  0  0  0
  2  8  2  0  0  0  0
  2  3  1  0  0  0  0
  3  4  2  0  0  0  0
  4  5  1  0  0  0  0
  5  6  1  0  0  0  0
  5  7  2  0  0  0  0
  7  8  1  0  0  0  0
  7  9  1  0  0  0  0
  9 10  2  0  0  0  0
  9 11  1  0  0  0  0
M  END
>  <Name>
Aminosalicylic acid, 5-

>  <CAS #>
89-57-6

>  <human Clearance (mL/min/kg)>
9.3

>  <Primary mechanism (metabolic, biliary or renal)>
metabolic

>  <seqId>
48.0

>  <Code (mechanism and clearance degree index)>
M1

>  < Five M1 and R1 test groups>
M1_1

>  <formamide>
0

>  <prodrug phosphates>
0

>  <VolSurf_V>
337.25

>  <VolSurf_S>
264.42

>  <VolSurf_R>
1.27543

>  <VolSurf_G>
1.19885

>  <VolSurf_IW1>
0.2138

>  <VolSurf_IW2>
0.477956

>  <VolSurf_IW3>
1.21624

>  <VolSurf_IW4>
2.1807

>  <VolSurf_ID1>
0.12188

>  <VolSurf_ID2>
0.179017

>  <VolSurf_ID3>
0.212134

>  <VolSurf_ID4>
0.0

>  <VolSurf_HL1>
6.04724

>  <VolSurf_HL2>
6.20896

>  <VolSurf_A>
4.95566

>  <VolSurf_CP>
0.292655

>  <VolSurf_POL>
13.599

>  <VolSurf_MW>
152.127

>  <VolSurf_FLEX>
0.208564

>  <VolSurf_FLEX_RB>
0.0695215

>  <VolSurf_NCC>
1.0

>  <VolSurf_LOGP n-Oct>
0.667

>  <VolSurf_LOGP c-Hex>
-3.81

>  <VolSurf_PSA>
92.37

>  <VolSurf_HSA>
172.05

>  <VolSurf_PSAR>
0.34933

>  <VolSurf_PHSAR>
0.536878

>  <VolSurf_LgD5>
-1.69582

>  <VolSurf_LgD6>
-2.00381

>  <VolSurf_LgD7>
-2.51399

>  <VolSurf_LgD7.5>
-2.64924

>  <VolSurf_LgD8>
-2.70565

>  <VolSurf_LgD9>
-2.73198

>  <VolSurf_LgD10>
-2.73494

>  <VolSurf_AUS7.4>
0.0

>  <VolSurf_%FU4>
0.0

>  <VolSurf_%FU5>
0.0

>  <VolSurf_%FU6>
0.0

>  <VolSurf_%FU7>
0.0

>  <VolSurf_%FU8>
0.0

>  <VolSurf_%FU9>
0.0

>  <VolSurf_%FU10>
0.0

>  <ID>
30

>  <MOKAID>
31

>  <Clearance Route>
uncertain

>  <PC1>
-1.85175

>  <PC2>
5.273619999999999

$$$$
Amiodarone
  -OEChem-08301611272D

 31 33  0     0  0  0  0  0  0999 V2000
    6.2857    2.2345    0.0000 C   0  0  0  0  0  0  0  0  0  0  0  0
    5.7857    1.3685    0.0000 C   0  0  0  0  0  0  0  0  0  0  0  0
    4.7857    1.3684    0.0000 C   0  0  0  0  0  0  0  0  0  0  0  0
    4.2858    0.5024    0.0000 C   0  0  0  0  0  0  0  0  0  0  0  0
    3.2858    0.5023    0.0000 C   0  0  0  0  0  0  0  0  0  0  0  0
    2.6938    1.3169    0.0000 O   0  0  0  0  0  0  0  0  0  0  0  0
    1.7360    1.0058    0.0000 C   0  0  0  0  0  0  0  0  0  0  0  0
    0.8680    1.5138    0.0000 C   0  0  0  0  0  0  0  0  0  0  0  0
    0.0000    1.0058    0.0000 C   0  0  0  0  0  0  0  0  0  0  0  0
    0.0000    0.0000    0.0000 C   0  0  0  0  0  0  0  0  0  0  0  0
    0.8680   -0.4978    0.0000 C   0  0  0  0  0  0  0  0  0  0  0  0
    1.7360   -0.0012    0.0000 C   0  0  0  0  0  0  0  0  0  0  0  0
    2.6938   -0.3125    0.0000 C   0  0  0  0  0  0  0  0  0  0  0  0
    3.0028   -1.2636    0.0000 C   0  0  0  0  0  0  0  0  0  0  0  0
    2.3336   -2.0067    0.0000 O   0  0  0  0  0  0  0  0  0  0  0  0
    3.9809   -1.4715    0.0000 C   0  0  0  0  0  0  0  0  0  0  0  0
    4.2887   -2.4285    0.0000 C   0  0  0  0  0  0  0  0  0  0  0  0
    5.2668   -2.6365    0.0000 C   0  0  0  0  0  0  0  0  0  0  0  0
    5.5730   -3.5885    0.0000 I   0  0  0  0  0  0  0  0  0  0  0  0
    5.9403   -1.8973    0.0000 C   0  0  0  0  0  0  0  0  0  0  0  0
    6.9176   -2.1095    0.0000 O   0  0  0  0  0  0  0  0  0  0  0  0
    7.5900   -1.3694    0.0000 C   0  0  0  0  0  0  0  0  0  0  0  0
    8.5672   -1.5816    0.0000 C   0  0  0  0  0  0  0  0  0  0  0  0
    9.2396   -0.8415    0.0000 N   0  0  0  0  0  0  0  0  0  0  0  0
    8.9349    0.1110    0.0000 C   0  0  0  0  0  0  0  0  0  0  0  0
    7.9576    0.3232    0.0000 C   0  0  0  0  0  0  0  0  0  0  0  0
   10.2168   -1.0537    0.0000 C   0  0  0  0  0  0  0  0  0  0  0  0
   10.8893   -0.3136    0.0000 C   0  0  0  0  0  0  0  0  0  0  0  0
    5.6326   -0.9403    0.0000 C   0  0  0  0  0  0  0  0  0  0  0  0
    6.3061   -0.2012    0.0000 I   0  0  0  0  0  0  0  0  0  0  0  0
    4.6513   -0.7226    0.0000 C   0  0  0  0  0  0  0  0  0  0  0  0
  1  2  1  0  0  0  0
  2  3  1  0  0  0  0
  3  4  1  0  0  0  0
  4  5  1  0  0  0  0
  5 13  2  0  0  0  0
  5  6  1  0  0  0  0
  6  7  1  0  0  0  0
  7 12  2  0  0  0  0
  7  8  1  0  0  0  0
  8  9  2  0  0  0  0
  9 10  1  0  0  0  0
 10 11  2  0  0  0  0
 11 12  1  0  0  0  0
 12 13  1  0  0  0  0
 13 14  1  0  0  0  0
 14 15  2  0  0  0  0
 14 16  1  0  0  0  0
 16 31  2  0  0  0  0
 16 17  1  0  0  0  0
 17 18  2  0  0  0  0
 18 19  1  0  0  0  0
 18 20  1  0  0  0  0
 20 21  1  0  0  0  0
 21 22  1  0  0  0  0
 22 23  1  0  0  0  0
 23 24  1  0  0  0  0
 24 25  1  0  0  0  0
 25 26  1  0  0  0  0
 24 27  1  0  0  0  0
 27 28  1  0  0  0  0
 20 29  2  0  0  0  0
 29 30  1  0  0  0  0
 29 31  1  0  0  0  0
M  END
>  <Name>
Amiodarone

>  <CAS #>
1951-25-3

>  <human Clearance (mL/min/kg)>
1.9

>  <Primary mechanism (metabolic, biliary or renal)>
metabolic

>  <seqId>
49.0

>  <Code (mechanism and clearance degree index)>
M1

>  < Five M1 and R1 test groups>
M1_3

>  <formamide>
0

>  <prodrug phosphates>
0

>  <VolSurf_V>
1114.75

>  <VolSurf_S>
738.377

>  <VolSurf_R>
1.50973

>  <VolSurf_G>
1.69244

>  <VolSurf_IW1>
0.0349912

>  <VolSurf_IW2>
0.145581

>  <VolSurf_IW3>
0.424233

>  <VolSurf_IW4>
0.884464

>  <VolSurf_ID1>
0.00709747

>  <VolSurf_ID2>
0.0548217

>  <VolSurf_ID3>
0.0927604

>  <VolSurf_ID4>
0.127648

>  <VolSurf_HL1>
0.798913

>  <VolSurf_HL2>
0.565217

>  <VolSurf_A>
3.26101

>  <VolSurf_CP>
2.21222

>  <VolSurf_POL>
57.019

>  <VolSurf_MW>
646.319

>  <VolSurf_FLEX>
2.62659

>  <VolSurf_FLEX_RB>
0.187614

>  <VolSurf_NCC>
1.0

>  <VolSurf_LOGP n-Oct>
7.509

>  <VolSurf_LOGP c-Hex>
4.624

>  <VolSurf_PSA>
53.05

>  <VolSurf_HSA>
685.327

>  <VolSurf_PSAR>
0.0718468

>  <VolSurf_PHSAR>
0.0774083

>  <VolSurf_LgD5>
3.83035

>  <VolSurf_LgD6>
4.79536

>  <VolSurf_LgD7>
5.78435

>  <VolSurf_LgD7.5>
6.26674

>  <VolSurf_LgD8>
6.71599

>  <VolSurf_LgD9>
7.32689

>  <VolSurf_LgD10>
7.48694

>  <VolSurf_AUS7.4>
0.724279

>  <VolSurf_%FU4>
0.00191958

>  <VolSurf_%FU5>
0.0191924

>  <VolSurf_%FU6>
0.191593

>  <VolSurf_%FU7>
1.88346

>  <VolSurf_%FU8>
16.1047

>  <VolSurf_%FU9>
65.7489

>  <VolSurf_%FU10>
95.0486

>  <ID>
31

>  <MOKAID>
32

>  <Clearance Route>
metabolic

>  <PC1>
4.8689599999999995

>  <PC2>
-4.06591

$$$$
Amitriptyline
  -OEChem-08301611272D

 21 23  0     0  0  0  0  0  0999 V2000
    1.1301   -5.0230    0.0000 C   0  0  0  0  0  0  0  0  0  0  0  0
    1.1257   -4.0230    0.0000 N   0  0  0  0  0  0  0  0  0  0  0  0
    0.2575   -3.5268    0.0000 C   0  0  0  0  0  0  0  0  0  0  0  0
    1.9896   -3.5192    0.0000 C   0  0  0  0  0  0  0  0  0  0  0  0
    1.9852   -2.5192    0.0000 C   0  0  0  0  0  0  0  0  0  0  0  0
    2.8490   -2.0154    0.0000 C   0  0  0  0  0  0  0  0  0  0  0  0
    2.8446   -1.0154    0.0000 C   0  0  0  0  0  0  0  0  0  0  0  0
    1.9312   -0.5840    0.0000 C   0  0  0  0  0  0  0  0  0  0  0  0
    1.2003   -1.2778    0.0000 C   0  0  0  0  0  0  0  0  0  0  0  0
    0.2313   -0.9837    0.0000 C   0  0  0  0  0  0  0  0  0  0  0  0
    0.0000    0.0000    0.0000 C   0  0  0  0  0  0  0  0  0  0  0  0
    0.7377    0.6898    0.0000 C   0  0  0  0  0  0  0  0  0  0  0  0
    1.6999    0.3997    0.0000 C   0  0  0  0  0  0  0  0  0  0  0  0
    2.3292    1.1930    0.0000 C   0  0  0  0  0  0  0  0  0  0  0  0
    3.3333    1.1944    0.0000 C   0  0  0  0  0  0  0  0  0  0  0  0
    3.9620    0.4062    0.0000 C   0  0  0  0  0  0  0  0  0  0  0  0
    4.9146    0.7195    0.0000 C   0  0  0  0  0  0  0  0  0  0  0  0
    5.6612    0.0428    0.0000 C   0  0  0  0  0  0  0  0  0  0  0  0
    5.4510   -0.9405    0.0000 C   0  0  0  0  0  0  0  0  0  0  0  0
    4.4941   -1.2472    0.0000 C   0  0  0  0  0  0  0  0  0  0  0  0
    3.7517   -0.5772    0.0000 C   0  0  0  0  0  0  0  0  0  0  0  0
  1  2  1  0  0  0  0
  2  3  1  0  0  0  0
  2  4  1  0  0  0  0
  4  5  1  0  0  0  0
  5  6  1  0  0  0  0
  6  7  2  0  0  0  0
  7 21  1  0  0  0  0
  7  8  1  0  0  0  0
  8 13  2  0  0  0  0
  8  9  1  0  0  0  0
  9 10  2  0  0  0  0
 10 11  1  0  0  0  0
 11 12  2  0  0  0  0
 12 13  1  0  0  0  0
 13 14  1  0  0  0  0
 14 15  1  0  0  0  0
 15 16  1  0  0  0  0
 16 21  2  0  0  0  0
 16 17  1  0  0  0  0
 17 18  2  0  0  0  0
 18 19  1  0  0  0  0
 19 20  2  0  0  0  0
 20 21  1  0  0  0  0
M  END
>  <Name>
Amitriptyline

>  <CAS #>
50-48-6

>  <human Clearance (mL/min/kg)>
6.1

>  <Primary mechanism (metabolic, biliary or renal)>
metabolic

>  <seqId>
50.0

>  <Code (mechanism and clearance degree index)>
M1

>  < Five M1 and R1 test groups>
M1_5

>  <formamide>
0

>  <prodrug phosphates>
0

>  <VolSurf_V>
725.875

>  <VolSurf_S>
482.609

>  <VolSurf_R>
1.50407

>  <VolSurf_G>
1.37342

>  <VolSurf_IW1>
0.0145582

>  <VolSurf_IW2>
0.240759

>  <VolSurf_IW3>
1.02497

>  <VolSurf_IW4>
0.0

>  <VolSurf_ID1>
0.0225042

>  <VolSurf_ID2>
0.0606076

>  <VolSurf_ID3>
0.100399

>  <VolSurf_ID4>
0.0938718

>  <VolSurf_HL1>
0.0656814

>  <VolSurf_HL2>
0.0421687

>  <VolSurf_A>
7.09065

>  <VolSurf_CP>
16.2619

>  <VolSurf_POL>
37.082

>  <VolSurf_MW>
278.411

>  <VolSurf_FLEX>
0.831022

>  <VolSurf_FLEX_RB>
0.166204

>  <VolSurf_NCC>
1.0

>  <VolSurf_LOGP n-Oct>
4.596

>  <VolSurf_LOGP c-Hex>
3.257

>  <VolSurf_PSA>
11.41

>  <VolSurf_HSA>
471.199

>  <VolSurf_PSAR>
0.0236423

>  <VolSurf_PHSAR>
0.0242148

>  <VolSurf_LgD5>
1.0494

>  <VolSurf_LgD6>
1.93142

>  <VolSurf_LgD7>
2.90966

>  <VolSurf_LgD7.5>
3.38976

>  <VolSurf_LgD8>
3.83468

>  <VolSurf_LgD9>
4.42652

>  <VolSurf_LgD10>
4.57575

>  <VolSurf_AUS7.4>
0.755771

>  <VolSurf_%FU4>
0.00209465

>  <VolSurf_%FU5>
0.0209426

>  <VolSurf_%FU6>
0.209032

>  <VolSurf_%FU7>
2.05172

>  <VolSurf_%FU8>
17.3191

>  <VolSurf_%FU9>
67.6867

>  <VolSurf_%FU10>
95.4436

>  <ID>
32

>  <MOKAID>
33

>  <Clearance Route>
metabolic

>  <PC1>
4.41721

>  <PC2>
0.339461

$$$$
Amlodipine
  -OEChem-08301611272D

 28 29  0     1  0  0  0  0  0999 V2000
   -4.3316    0.4925    0.0000 C   0  0  0  0  0  0  0  0  0  0  0  0
   -3.4648   -0.0063    0.0000 C   0  0  0  0  0  0  0  0  0  0  0  0
   -2.5995    0.4950    0.0000 O   0  0  0  0  0  0  0  0  0  0  0  0
   -1.7328   -0.0038    0.0000 C   0  0  0  0  0  0  0  0  0  0  0  0
   -1.7313   -1.0038    0.0000 O   0  0  0  0  0  0  0  0  0  0  0  0
   -0.8675    0.4975    0.0000 C   0  0  0  0  0  0  0  0  0  0  0  0
   -0.8675    1.5027    0.0000 C   0  0  0  0  0  0  0  0  0  0  0  0
   -1.7350    2.0001    0.0000 C   0  0  0  0  0  0  0  0  0  0  0  0
   -2.5995    1.4976    0.0000 O   0  0  0  0  0  0  0  0  0  0  0  0
   -3.4670    1.9950    0.0000 C   0  0  0  0  0  0  0  0  0  0  0  0
   -4.3316    1.4925    0.0000 C   0  0  0  0  0  0  0  0  0  0  0  0
   -5.1991    1.9899    0.0000 N   0  0  0  0  0  0  0  0  0  0  0  0
    0.0000    2.0104    0.0000 N   0  0  0  0  0  0  0  0  0  0  0  0
    0.8675    1.5027    0.0000 C   0  0  0  0  0  0  0  0  0  0  0  0
    0.8675    0.4975    0.0000 C   0  0  0  0  0  0  0  0  0  0  0  0
    0.0000    0.0000    0.0000 C   0  0  3  0  0  0  0  0  0  0  0  0
   -0.0000   -1.7500    0.0000 C   0  0  0  0  0  0  0  0  0  0  0  0
    0.8653   -2.2513    0.0000 C   0  0  0  0  0  0  0  0  0  0  0  0
    0.8697   -3.2513    0.0000 C   0  0  0  0  0  0  0  0  0  0  0  0
   -0.0001   -3.7552    0.0000 C   0  0  0  0  0  0  0  0  0  0  0  0
   -0.8743   -3.2590    0.0000 C   0  0  0  0  0  0  0  0  0  0  0  0
   -0.8698   -2.2539    0.0000 C   0  0  0  0  0  0  0  0  0  0  0  0
   -1.7351   -1.7526    0.0000 Cl  0  0  0  0  0  0  0  0  0  0  0  0
    1.7328   -0.0038    0.0000 C   0  0  0  0  0  0  0  0  0  0  0  0
    1.7313   -1.0038    0.0000 O   0  0  0  0  0  0  0  0  0  0  0  0
    2.5995    0.4950    0.0000 O   0  0  0  0  0  0  0  0  0  0  0  0
    3.4648   -0.0063    0.0000 C   0  0  0  0  0  0  0  0  0  0  0  0
    1.7350    2.0001    0.0000 C   0  0  0  0  0  0  0  0  0  0  0  0
  1  2  1  0  0  0  0
  2  3  1  0  0  0  0
  3  4  1  0  0  0  0
  4  5  2  0  0  0  0
  4  6  1  0  0  0  0
  6 16  1  0  0  0  0
  6  7  2  0  0  0  0
  7  8  1  0  0  0  0
  8  9  1  0  0  0  0
  9 10  1  0  0  0  0
 10 11  1  0  0  0  0
 11 12  1  0  0  0  0
  7 13  1  0  0  0  0
 13 14  1  0  0  0  0
 14 15  2  0  0  0  0
 15 16  1  0  0  0  0
 16 17  1  0  0  0  0
 17 22  2  0  0  0  0
 17 18  1  0  0  0  0
 18 19  2  0  0  0  0
 19 20  1  0  0  0  0
 20 21  2  0  0  0  0
 21 22  1  0  0  0  0
 22 23  1  0  0  0  0
 15 24  1  0  0  0  0
 24 25  2  0  0  0  0
 24 26  1  0  0  0  0
 26 27  1  0  0  0  0
 14 28  1  0  0  0  0
M  END
>  <Name>
Amlodipine

>  <CAS #>
88150-42-9

>  <human Clearance (mL/min/kg)>
7.0

>  <Primary mechanism (metabolic, biliary or renal)>
metabolic

>  <seqId>
51.0

>  <Code (mechanism and clearance degree index)>
M1

>  < Five M1 and R1 test groups>
M1_5

>  <formamide>
0

>  <prodrug phosphates>
0

>  <VolSurf_V>
872.75

>  <VolSurf_S>
582.37

>  <VolSurf_R>
1.49862

>  <VolSurf_G>
1.5142

>  <VolSurf_IW1>
0.0975061

>  <VolSurf_IW2>
0.22781

>  <VolSurf_IW3>
0.524423

>  <VolSurf_IW4>
0.508584

>  <VolSurf_ID1>
0.0555384

>  <VolSurf_ID2>
0.0670761

>  <VolSurf_ID3>
0.0579664

>  <VolSurf_ID4>
0.088689

>  <VolSurf_HL1>
4.54589

>  <VolSurf_HL2>
4.68687

>  <VolSurf_A>
5.06645

>  <VolSurf_CP>
0.453894

>  <VolSurf_POL>
43.602

>  <VolSurf_MW>
409.883

>  <VolSurf_FLEX>
1.72477

>  <VolSurf_FLEX_RB>
0.123198

>  <VolSurf_NCC>
1.0

>  <VolSurf_LOGP n-Oct>
2.041

>  <VolSurf_LOGP c-Hex>
2.597

>  <VolSurf_PSA>
111.77

>  <VolSurf_HSA>
470.6

>  <VolSurf_PSAR>
0.191923

>  <VolSurf_PHSAR>
0.237505

>  <VolSurf_LgD5>
-0.80877

>  <VolSurf_LgD6>
-0.60226

>  <VolSurf_LgD7>
0.0741196

>  <VolSurf_LgD7.5>
0.527801

>  <VolSurf_LgD8>
0.988471

>  <VolSurf_LgD9>
1.73109

>  <VolSurf_LgD10>
1.99793

>  <VolSurf_AUS7.4>
0.484195

>  <VolSurf_%FU4>
9.53619E-4

>  <VolSurf_%FU5>
0.00957255

>  <VolSurf_%FU6>
0.0956804

>  <VolSurf_%FU7>
0.948672

>  <VolSurf_%FU8>
8.74048

>  <VolSurf_%FU9>
48.9213

>  <VolSurf_%FU10>
90.5461

>  <ID>
33

>  <MOKAID>
34

>  <Clearance Route>
possible billary

>  <PC1>
0.49913900000000005

>  <PC2>
-1.1395

$$$$
Amoxicillin
  -OEChem-08301611272D

 26 28  0     1  0  0  0  0  0999 V2000
    3.2824    0.1689    0.0000 C   0  0  0  0  0  0  0  0  0  0  0  0
    2.5392   -0.5002    0.0000 C   0  0  0  0  0  0  0  0  0  0  0  0
    3.2822   -1.1694    0.0000 C   0  0  0  0  0  0  0  0  0  0  0  0
    1.9514    0.3089    0.0000 S   0  0  0  0  0  0  0  0  0  0  0  0
    1.0001    0.0000    0.0000 C   0  0  2  0  0  0  0  0  0  0  0  0
    0.0000    0.0000    0.0000 C   0  0  2  0  0  0  0  0  0  0  0  0
   -0.7071    0.7071    0.0000 N   0  0  0  0  0  0  0  0  0  0  0  0
   -1.6730    0.4483    0.0000 C   0  0  0  0  0  0  0  0  0  0  0  0
   -1.9319   -0.5176    0.0000 O   0  0  0  0  0  0  0  0  0  0  0  0
   -2.3801    1.1554    0.0000 C   0  0  2  0  0  0  0  0  0  0  0  0
   -2.1213    2.1213    0.0000 N   0  0  0  0  0  0  0  0  0  0  0  0
   -3.3461    0.8966    0.0000 C   0  0  0  0  0  0  0  0  0  0  0  0
   -3.6034   -0.0751    0.0000 C   0  0  0  0  0  0  0  0  0  0  0  0
   -4.5693   -0.3340    0.0000 C   0  0  0  0  0  0  0  0  0  0  0  0
   -5.2806    0.3690    0.0000 C   0  0  0  0  0  0  0  0  0  0  0  0
   -6.2453    0.1059    0.0000 O   0  0  0  0  0  0  0  0  0  0  0  0
   -5.0233    1.3407    0.0000 C   0  0  0  0  0  0  0  0  0  0  0  0
   -4.0547    1.6094    0.0000 C   0  0  0  0  0  0  0  0  0  0  0  0
   -0.0000   -1.0001    0.0000 C   0  0  0  0  0  0  0  0  0  0  0  0
   -0.7071   -1.7072    0.0000 O   0  0  0  0  0  0  0  0  0  0  0  0
    1.0000   -1.0001    0.0000 N   0  0  0  0  0  0  0  0  0  0  0  0
    1.9511   -1.3093    0.0000 C   0  0  1  0  0  0  0  0  0  0  0  0
    2.2599   -2.2604    0.0000 C   0  0  0  0  0  0  0  0  0  0  0  0
    1.5907   -3.0034    0.0000 O   0  0  0  0  0  0  0  0  0  0  0  0
    3.2381   -2.4685    0.0000 O   0  0  0  0  0  0  0  0  0  0  0  0
    0.8438    0.9877    0.0000 H   0  0  0  0  0  0  0  0  0  0  0  0
  1  2  1  0  0  0  0
  2 22  1  0  0  0  0
  2  3  1  0  0  0  0
  2  4  1  0  0  0  0
  4  5  1  0  0  0  0
  5 21  1  0  0  0  0
  5  6  1  0  0  0  0
  6  7  1  1  0  0  0
  7  8  1  0  0  0  0
  8  9  2  0  0  0  0
  8 10  1  0  0  0  0
 10 11  1  1  0  0  0
 10 12  1  0  0  0  0
 12 18  2  0  0  0  0
 12 13  1  0  0  0  0
 13 14  2  0  0  0  0
 14 15  1  0  0  0  0
 15 16  1  0  0  0  0
 15 17  2  0  0  0  0
 17 18  1  0  0  0  0
  6 19  1  0  0  0  0
 19 20  2  0  0  0  0
 19 21  1  0  0  0  0
 21 22  1  0  0  0  0
 22 23  1  6  0  0  0
 23 24  2  0  0  0  0
 23 25  1  0  0  0  0
  5 26  1  6  0  0  0
M  END
>  <Name>
Amoxicillin

>  <CAS #>
26787-78-0

>  <human Clearance (mL/min/kg)>
3.3

>  <Primary mechanism (metabolic, biliary or renal)>
renal

>  <seqId>
53.0

>  <Code (mechanism and clearance degree index)>
R1

>  < Five M1 and R1 test groups>
R1_2

>  <formamide>
0

>  <prodrug phosphates>
0

>  <VolSurf_V>
735.75

>  <VolSurf_S>
511.982

>  <VolSurf_R>
1.43706

>  <VolSurf_G>
1.48056

>  <VolSurf_IW1>
0.0611294

>  <VolSurf_IW2>
0.131524

>  <VolSurf_IW3>
0.364736

>  <VolSurf_IW4>
0.718718

>  <VolSurf_ID1>
0.0308505

>  <VolSurf_ID2>
0.126843

>  <VolSurf_ID3>
0.264667

>  <VolSurf_ID4>
0.342924

>  <VolSurf_HL1>
24.8333

>  <VolSurf_HL2>
47.2

>  <VolSurf_A>
5.1425

>  <VolSurf_CP>
0.0544865

>  <VolSurf_POL>
36.507

>  <VolSurf_MW>
365.404

>  <VolSurf_FLEX>
1.52112

>  <VolSurf_FLEX_RB>
0.19014

>  <VolSurf_NCC>
2.0

>  <VolSurf_LOGP n-Oct>
0.423

>  <VolSurf_LOGP c-Hex>
-4.287

>  <VolSurf_PSA>
161.91

>  <VolSurf_HSA>
350.072

>  <VolSurf_PSAR>
0.316241

>  <VolSurf_PHSAR>
0.462504

>  <VolSurf_LgD5>
-1.10203

>  <VolSurf_LgD6>
-1.11045

>  <VolSurf_LgD7>
-1.20033

>  <VolSurf_LgD7.5>
-1.36132

>  <VolSurf_LgD8>
-1.65643

>  <VolSurf_LgD9>
-2.50839

>  <VolSurf_LgD10>
-3.40964

>  <VolSurf_AUS7.4>
0.0

>  <VolSurf_%FU4>
0.0

>  <VolSurf_%FU5>
0.0

>  <VolSurf_%FU6>
0.0

>  <VolSurf_%FU7>
0.0

>  <VolSurf_%FU8>
0.0

>  <VolSurf_%FU9>
0.0

>  <VolSurf_%FU10>
0.0

>  <ID>
34

>  <MOKAID>
35

>  <Clearance Route>
renal

>  <PC1>
-2.4790799999999997

>  <PC2>
0.277097

$$$$
Amphetamine (-d)
  -OEChem-08301611272D

 10 10  0     1  0  0  0  0  0999 V2000
    0.8675    1.5027    0.0000 C   0  0  0  0  0  0  0  0  0  0  0  0
    0.8675    0.4975    0.0000 C   0  0  0  0  0  0  0  0  0  0  0  0
    0.0000    0.0000    0.0000 C   0  0  0  0  0  0  0  0  0  0  0  0
   -0.8675    0.4975    0.0000 C   0  0  0  0  0  0  0  0  0  0  0  0
   -0.8675    1.5027    0.0000 C   0  0  0  0  0  0  0  0  0  0  0  0
    0.0000    2.0104    0.0000 C   0  0  0  0  0  0  0  0  0  0  0  0
    1.7350    2.0001    0.0000 C   0  0  0  0  0  0  0  0  0  0  0  0
    1.7379    3.0001    0.0000 C   0  0  2  0  0  0  0  0  0  0  0  0
    0.8734    3.5027    0.0000 C   0  0  0  0  0  0  0  0  0  0  0  0
    2.6054    3.4976    0.0000 N   0  0  0  0  0  0  0  0  0  0  0  0
  1  6  2  0  0  0  0
  1  2  1  0  0  0  0
  2  3  2  0  0  0  0
  3  4  1  0  0  0  0
  4  5  2  0  0  0  0
  5  6  1  0  0  0  0
  1  7  1  0  0  0  0
  7  8  1  0  0  0  0
  8  9  1  0  0  0  0
  8 10  1  6  0  0  0
M  END
>  <Name>
Amphetamine (-d)

>  <CAS #>
51-64-9

>  <human Clearance (mL/min/kg)>
9.7

>  <Primary mechanism (metabolic, biliary or renal)>
metabolic

>  <seqId>
54.0

>  <Code (mechanism and clearance degree index)>
M1

>  < Five M1 and R1 test groups>
M1_3

>  <formamide>
0

>  <prodrug phosphates>
0

>  <VolSurf_V>
397.375

>  <VolSurf_S>
293.492

>  <VolSurf_R>
1.35396

>  <VolSurf_G>
1.18978

>  <VolSurf_IW1>
0.210308

>  <VolSurf_IW2>
0.790581

>  <VolSurf_IW3>
1.4179

>  <VolSurf_IW4>
1.84624

>  <VolSurf_ID1>
0.0916267

>  <VolSurf_ID2>
0.158013

>  <VolSurf_ID3>
0.236035

>  <VolSurf_ID4>
0.294654

>  <VolSurf_HL1>
1.58173

>  <VolSurf_HL2>
1.51579

>  <VolSurf_A>
6.21909

>  <VolSurf_CP>
0.858828

>  <VolSurf_POL>
19.213

>  <VolSurf_MW>
136.214

>  <VolSurf_FLEX>
0.579756

>  <VolSurf_FLEX_RB>
0.144939

>  <VolSurf_NCC>
1.0

>  <VolSurf_LOGP n-Oct>
1.804

>  <VolSurf_LOGP c-Hex>
2.217

>  <VolSurf_PSA>
34.61

>  <VolSurf_HSA>
258.882

>  <VolSurf_PSAR>
0.117925

>  <VolSurf_PHSAR>
0.13369

>  <VolSurf_LgD5>
-1.67842

>  <VolSurf_LgD6>
-1.54583

>  <VolSurf_LgD7>
-0.98622

>  <VolSurf_LgD7.5>
-0.549534

>  <VolSurf_LgD8>
-0.0750197

>  <VolSurf_LgD9>
0.867943

>  <VolSurf_LgD10>
1.55732

>  <VolSurf_AUS7.4>
0.0116548

>  <VolSurf_%FU4>
1.30688E-4

>  <VolSurf_%FU5>
0.00130686

>  <VolSurf_%FU6>
0.0130671

>  <VolSurf_%FU7>
0.130517

>  <VolSurf_%FU8>
1.29002

>  <VolSurf_%FU9>
11.5583

>  <VolSurf_%FU10>
56.6514

>  <ID>
35

>  <MOKAID>
36

>  <Clearance Route>
uncertain

>  <PC1>
1.0092700000000001

>  <PC2>
5.1536

$$$$
Ampicillin
  -OEChem-08301611272D

 25 27  0     1  0  0  0  0  0999 V2000
    3.2824    0.1689    0.0000 C   0  0  0  0  0  0  0  0  0  0  0  0
    2.5392   -0.5002    0.0000 C   0  0  0  0  0  0  0  0  0  0  0  0
    3.2822   -1.1694    0.0000 C   0  0  0  0  0  0  0  0  0  0  0  0
    1.9514    0.3089    0.0000 S   0  0  0  0  0  0  0  0  0  0  0  0
    1.0001    0.0000    0.0000 C   0  0  2  0  0  0  0  0  0  0  0  0
    0.0000    0.0000    0.0000 C   0  0  2  0  0  0  0  0  0  0  0  0
   -0.7071    0.7071    0.0000 N   0  0  0  0  0  0  0  0  0  0  0  0
   -1.6730    0.4483    0.0000 C   0  0  0  0  0  0  0  0  0  0  0  0
   -1.9319   -0.5176    0.0000 O   0  0  0  0  0  0  0  0  0  0  0  0
   -2.3801    1.1554    0.0000 C   0  0  2  0  0  0  0  0  0  0  0  0
   -2.1213    2.1213    0.0000 N   0  0  0  0  0  0  0  0  0  0  0  0
   -3.3461    0.8966    0.0000 C   0  0  0  0  0  0  0  0  0  0  0  0
   -3.6034   -0.0751    0.0000 C   0  0  0  0  0  0  0  0  0  0  0  0
   -4.5693   -0.3340    0.0000 C   0  0  0  0  0  0  0  0  0  0  0  0
   -5.2806    0.3690    0.0000 C   0  0  0  0  0  0  0  0  0  0  0  0
   -5.0233    1.3407    0.0000 C   0  0  0  0  0  0  0  0  0  0  0  0
   -4.0547    1.6094    0.0000 C   0  0  0  0  0  0  0  0  0  0  0  0
   -0.0000   -1.0001    0.0000 C   0  0  0  0  0  0  0  0  0  0  0  0
   -0.7071   -1.7072    0.0000 O   0  0  0  0  0  0  0  0  0  0  0  0
    1.0000   -1.0001    0.0000 N   0  0  0  0  0  0  0  0  0  0  0  0
    1.9511   -1.3093    0.0000 C   0  0  1  0  0  0  0  0  0  0  0  0
    2.2599   -2.2604    0.0000 C   0  0  0  0  0  0  0  0  0  0  0  0
    1.5907   -3.0034    0.0000 O   0  0  0  0  0  0  0  0  0  0  0  0
    3.2381   -2.4685    0.0000 O   0  0  0  0  0  0  0  0  0  0  0  0
    0.8438    0.9877    0.0000 H   0  0  0  0  0  0  0  0  0  0  0  0
  1  2  1  0  0  0  0
  2 21  1  0  0  0  0
  2  3  1  0  0  0  0
  2  4  1  0  0  0  0
  4  5  1  0  0  0  0
  5 20  1  0  0  0  0
  5  6  1  0  0  0  0
  6  7  1  1  0  0  0
  7  8  1  0  0  0  0
  8  9  2  0  0  0  0
  8 10  1  0  0  0  0
 10 11  1  1  0  0  0
 10 12  1  0  0  0  0
 12 17  2  0  0  0  0
 12 13  1  0  0  0  0
 13 14  2  0  0  0  0
 14 15  1  0  0  0  0
 15 16  2  0  0  0  0
 16 17  1  0  0  0  0
  6 18  1  0  0  0  0
 18 19  2  0  0  0  0
 18 20  1  0  0  0  0
 20 21  1  0  0  0  0
 21 22  1  6  0  0  0
 22 23  2  0  0  0  0
 22 24  1  0  0  0  0
  5 25  1  6  0  0  0
M  END
>  <Name>
Ampicillin

>  <CAS #>
69-53-4

>  <human Clearance (mL/min/kg)>
2.8

>  <Primary mechanism (metabolic, biliary or renal)>
renal

>  <seqId>
56.0

>  <Code (mechanism and clearance degree index)>
R1

>  < Five M1 and R1 test groups>
R1_5

>  <formamide>
0

>  <prodrug phosphates>
0

>  <VolSurf_V>
727.25

>  <VolSurf_S>
504.481

>  <VolSurf_R>
1.44158

>  <VolSurf_G>
1.46506

>  <VolSurf_IW1>
0.0956536

>  <VolSurf_IW2>
0.208535

>  <VolSurf_IW3>
0.432338

>  <VolSurf_IW4>
0.687557

>  <VolSurf_ID1>
0.0643153

>  <VolSurf_ID2>
0.126353

>  <VolSurf_ID3>
0.29056

>  <VolSurf_ID4>
0.0

>  <VolSurf_HL1>
28.2407

>  <VolSurf_HL2>
98.7778

>  <VolSurf_A>
5.84711

>  <VolSurf_CP>
0.0434598

>  <VolSurf_POL>
35.87

>  <VolSurf_MW>
349.405

>  <VolSurf_FLEX>
1.34311

>  <VolSurf_FLEX_RB>
0.191873

>  <VolSurf_NCC>
2.0

>  <VolSurf_LOGP n-Oct>
0.855

>  <VolSurf_LOGP c-Hex>
-1.647

>  <VolSurf_PSA>
141.68

>  <VolSurf_HSA>
362.801

>  <VolSurf_PSAR>
0.280843

>  <VolSurf_PHSAR>
0.390518

>  <VolSurf_LgD5>
-0.669811

>  <VolSurf_LgD6>
-0.676344

>  <VolSurf_LgD7>
-0.750769

>  <VolSurf_LgD7.5>
-0.88955

>  <VolSurf_LgD8>
-1.1562

>  <VolSurf_LgD9>
-1.93134

>  <VolSurf_LgD10>
-2.48833

>  <VolSurf_AUS7.4>
0.0

>  <VolSurf_%FU4>
0.0

>  <VolSurf_%FU5>
0.0

>  <VolSurf_%FU6>
0.0

>  <VolSurf_%FU7>
0.0

>  <VolSurf_%FU8>
0.0

>  <VolSurf_%FU9>
0.0

>  <VolSurf_%FU10>
0.0

>  <ID>
36

>  <MOKAID>
37

>  <Clearance Route>
renal

>  <PC1>
-1.74055

>  <PC2>
0.939602

$$$$
Amsacrine
  -OEChem-08301611272D

 28 31  0     0  0  0  0  0  0999 V2000
    1.7300    3.0070    0.0000 C   0  0  0  0  0  0  0  0  0  0  0  0
    2.5939    3.5106    0.0000 O   0  0  0  0  0  0  0  0  0  0  0  0
    3.4620    3.0142    0.0000 C   0  0  0  0  0  0  0  0  0  0  0  0
    4.3289    3.5230    0.0000 C   0  0  0  0  0  0  0  0  0  0  0  0
    5.1970    3.0163    0.0000 C   0  0  0  0  0  0  0  0  0  0  0  0
    6.0639    3.5148    0.0000 N   0  0  0  0  0  0  0  0  0  0  0  0
    6.9290    3.0133    0.0000 S   0  0  0  0  0  0  0  0  0  0  0  0
    6.4275    2.1482    0.0000 O   0  0  0  0  0  0  0  0  0  0  0  0
    7.4305    3.8785    0.0000 O   0  0  0  0  0  0  0  0  0  0  0  0
    7.7942    2.5118    0.0000 C   0  0  0  0  0  0  0  0  0  0  0  0
    5.1982    2.0111    0.0000 C   0  0  0  0  0  0  0  0  0  0  0  0
    4.3313    1.5126    0.0000 C   0  0  0  0  0  0  0  0  0  0  0  0
    3.4632    2.0090    0.0000 C   0  0  0  0  0  0  0  0  0  0  0  0
    2.5985    1.5067    0.0000 N   0  0  0  0  0  0  0  0  0  0  0  0
    2.6012    0.5067    0.0000 C   0  0  0  0  0  0  0  0  0  0  0  0
    1.7358    0.0000    0.0000 C   0  0  0  0  0  0  0  0  0  0  0  0
    0.8679    0.5079    0.0000 C   0  0  0  0  0  0  0  0  0  0  0  0
    0.0000    0.0000    0.0000 C   0  0  0  0  0  0  0  0  0  0  0  0
   -0.0000   -1.0057    0.0000 C   0  0  0  0  0  0  0  0  0  0  0  0
    0.8679   -1.5033    0.0000 C   0  0  0  0  0  0  0  0  0  0  0  0
    1.7371   -1.0057    0.0000 C   0  0  0  0  0  0  0  0  0  0  0  0
    2.6038   -1.5046    0.0000 N   0  0  0  0  0  0  0  0  0  0  0  0
    3.4738   -1.0059    0.0000 C   0  0  0  0  0  0  0  0  0  0  0  0
    4.3422   -1.5068    0.0000 C   0  0  0  0  0  0  0  0  0  0  0  0
    5.2158   -1.0053    0.0000 C   0  0  0  0  0  0  0  0  0  0  0  0
    5.2154    0.0028    0.0000 C   0  0  0  0  0  0  0  0  0  0  0  0
    4.3415    0.5094    0.0000 C   0  0  0  0  0  0  0  0  0  0  0  0
    3.4735    0.0022    0.0000 C   0  0  0  0  0  0  0  0  0  0  0  0
  1  2  1  0  0  0  0
  2  3  1  0  0  0  0
  3 13  2  0  0  0  0
  3  4  1  0  0  0  0
  4  5  2  0  0  0  0
  5  6  1  0  0  0  0
  6  7  1  0  0  0  0
  7  8  2  0  0  0  0
  7  9  2  0  0  0  0
  7 10  1  0  0  0  0
  5 11  1  0  0  0  0
 11 12  2  0  0  0  0
 12 13  1  0  0  0  0
 13 14  1  0  0  0  0
 14 15  1  0  0  0  0
 15 28  2  0  0  0  0
 15 16  1  0  0  0  0
 16 21  2  0  0  0  0
 16 17  1  0  0  0  0
 17 18  2  0  0  0  0
 18 19  1  0  0  0  0
 19 20  2  0  0  0  0
 20 21  1  0  0  0  0
 21 22  1  0  0  0  0
 22 23  2  0  0  0  0
 23 28  1  0  0  0  0
 23 24  1  0  0  0  0
 24 25  2  0  0  0  0
 25 26  1  0  0  0  0
 26 27  2  0  0  0  0
 27 28  1  0  0  0  0
M  END
>  <Name>
Amsacrine

>  <CAS #>
51264-14-3

>  <human Clearance (mL/min/kg)>
4.3

>  <Primary mechanism (metabolic, biliary or renal)>
metabolic

>  <seqId>
58.0

>  <Code (mechanism and clearance degree index)>
M1

>  < Five M1 and R1 test groups>
M1_1

>  <formamide>
0

>  <prodrug phosphates>
0

>  <VolSurf_V>
840.125

>  <VolSurf_S>
563.01

>  <VolSurf_R>
1.4922

>  <VolSurf_G>
1.49522

>  <VolSurf_IW1>
0.0449669

>  <VolSurf_IW2>
0.158757

>  <VolSurf_IW3>
0.355339

>  <VolSurf_IW4>
0.604366

>  <VolSurf_ID1>
0.0519675

>  <VolSurf_ID2>
0.100814

>  <VolSurf_ID3>
0.145028

>  <VolSurf_ID4>
0.205026

>  <VolSurf_HL1>
0.832734

>  <VolSurf_HL2>
0.245856

>  <VolSurf_A>
4.67648

>  <VolSurf_CP>
1.61664

>  <VolSurf_POL>
42.741

>  <VolSurf_MW>
394.467

>  <VolSurf_FLEX>
1.50899

>  <VolSurf_FLEX_RB>
0.215569

>  <VolSurf_NCC>
1.0

>  <VolSurf_LOGP n-Oct>
3.958

>  <VolSurf_LOGP c-Hex>
0.466

>  <VolSurf_PSA>
92.2825

>  <VolSurf_HSA>
470.727

>  <VolSurf_PSAR>
0.163909

>  <VolSurf_PHSAR>
0.196042

>  <VolSurf_LgD5>
0.0881376

>  <VolSurf_LgD6>
0.139605

>  <VolSurf_LgD7>
0.456867

>  <VolSurf_LgD7.5>
0.781058

>  <VolSurf_LgD8>
1.12381

>  <VolSurf_LgD9>
1.3309

>  <VolSurf_LgD10>
0.824421

>  <VolSurf_AUS7.4>
0.0

>  <VolSurf_%FU4>
0.0

>  <VolSurf_%FU5>
0.0

>  <VolSurf_%FU6>
0.0

>  <VolSurf_%FU7>
0.0

>  <VolSurf_%FU8>
0.0

>  <VolSurf_%FU9>
0.0

>  <VolSurf_%FU10>
0.0

>  <ID>
37

>  <MOKAID>
38

>  <Clearance Route>
possible billary

>  <PC1>
0.178821

>  <PC2>
-0.8485379999999999

$$$$
Amsalog
  -OEChem-08301611272D

 33 36  0     0  0  0  0  0  0999 V2000
    1.7331   -4.0036    0.0000 C   0  0  0  0  0  0  0  0  0  0  0  0
    1.7334   -3.0036    0.0000 N   0  0  0  0  0  0  0  0  0  0  0  0
    0.8676   -2.5033    0.0000 C   0  0  0  0  0  0  0  0  0  0  0  0
    0.0014   -3.0030    0.0000 O   0  0  0  0  0  0  0  0  0  0  0  0
    0.8679   -1.5033    0.0000 C   0  0  0  0  0  0  0  0  0  0  0  0
    0.0000   -1.0057    0.0000 C   0  0  0  0  0  0  0  0  0  0  0  0
    0.0000    0.0000    0.0000 C   0  0  0  0  0  0  0  0  0  0  0  0
    0.8679    0.5079    0.0000 C   0  0  0  0  0  0  0  0  0  0  0  0
    1.7358   -0.0000    0.0000 C   0  0  0  0  0  0  0  0  0  0  0  0
    2.6012    0.5067    0.0000 C   0  0  0  0  0  0  0  0  0  0  0  0
    2.5985    1.5067    0.0000 N   0  0  0  0  0  0  0  0  0  0  0  0
    1.7312    2.0044    0.0000 C   0  0  0  0  0  0  0  0  0  0  0  0
    0.8657    1.5033    0.0000 C   0  0  0  0  0  0  0  0  0  0  0  0
   -0.0038    1.9972    0.0000 C   0  0  0  0  0  0  0  0  0  0  0  0
   -0.0080    3.0024    0.0000 C   0  0  0  0  0  0  0  0  0  0  0  0
   -0.8775    3.4963    0.0000 N   0  0  0  0  0  0  0  0  0  0  0  0
   -0.8846    4.4963    0.0000 S   0  0  0  0  0  0  0  0  0  0  0  0
    0.1154    4.5033    0.0000 O   0  0  0  0  0  0  0  0  0  0  0  0
   -1.8845    4.4892    0.0000 O   0  0  0  0  0  0  0  0  0  0  0  0
   -0.8916    5.4962    0.0000 C   0  0  0  0  0  0  0  0  0  0  0  0
    0.8574    3.5137    0.0000 C   0  0  0  0  0  0  0  0  0  0  0  0
    1.7270    3.0096    0.0000 C   0  0  0  0  0  0  0  0  0  0  0  0
    2.5925    3.5106    0.0000 O   0  0  0  0  0  0  0  0  0  0  0  0
    3.4591    3.0116    0.0000 C   0  0  0  0  0  0  0  0  0  0  0  0
    3.4735    0.0022    0.0000 C   0  0  0  0  0  0  0  0  0  0  0  0
    4.3415    0.5094    0.0000 C   0  0  0  0  0  0  0  0  0  0  0  0
    5.2154    0.0028    0.0000 C   0  0  0  0  0  0  0  0  0  0  0  0
    5.2158   -1.0053    0.0000 C   0  0  0  0  0  0  0  0  0  0  0  0
    4.3422   -1.5068    0.0000 C   0  0  0  0  0  0  0  0  0  0  0  0
    4.3412   -2.5068    0.0000 C   0  0  0  0  0  0  0  0  0  0  0  0
    3.4738   -1.0059    0.0000 C   0  0  0  0  0  0  0  0  0  0  0  0
    2.6038   -1.5046    0.0000 N   0  0  0  0  0  0  0  0  0  0  0  0
    1.7371   -1.0057    0.0000 C   0  0  0  0  0  0  0  0  0  0  0  0
  1  2  1  0  0  0  0
  2  3  1  0  0  0  0
  3  4  2  0  0  0  0
  3  5  1  0  0  0  0
  5 33  2  0  0  0  0
  5  6  1  0  0  0  0
  6  7  2  0  0  0  0
  7  8  1  0  0  0  0
  8  9  2  0  0  0  0
  9 33  1  0  0  0  0
  9 10  1  0  0  0  0
 10 11  1  0  0  0  0
 11 12  1  0  0  0  0
 12 22  2  0  0  0  0
 12 13  1  0  0  0  0
 13 14  2  0  0  0  0
 14 15  1  0  0  0  0
 15 16  1  0  0  0  0
 16 17  1  0  0  0  0
 17 18  2  0  0  0  0
 17 19  2  0  0  0  0
 17 20  1  0  0  0  0
 15 21  2  0  0  0  0
 21 22  1  0  0  0  0
 22 23  1  0  0  0  0
 23 24  1  0  0  0  0
 10 25  2  0  0  0  0
 25 31  1  0  0  0  0
 25 26  1  0  0  0  0
 26 27  2  0  0  0  0
 27 28  1  0  0  0  0
 28 29  2  0  0  0  0
 29 30  1  0  0  0  0
 29 31  1  0  0  0  0
 31 32  2  0  0  0  0
 32 33  1  0  0  0  0
M  END
>  <Name>
Amsalog

>  <CAS #>
80841-47-0

>  <human Clearance (mL/min/kg)>
2.6

>  <Primary mechanism (metabolic, biliary or renal)>
metabolic

>  <seqId>
59.0

>  <Code (mechanism and clearance degree index)>
M1

>  < Five M1 and R1 test groups>
M1_4

>  <formamide>
0

>  <prodrug phosphates>
0

>  <VolSurf_V>
981.5

>  <VolSurf_S>
659.777

>  <VolSurf_R>
1.48762

>  <VolSurf_G>
1.6236

>  <VolSurf_IW1>
0.0253347

>  <VolSurf_IW2>
0.0751541

>  <VolSurf_IW3>
0.163155

>  <VolSurf_IW4>
1.12114

>  <VolSurf_ID1>
0.0251904

>  <VolSurf_ID2>
0.0496945

>  <VolSurf_ID3>
0.078738

>  <VolSurf_ID4>
0.104814

>  <VolSurf_HL1>
1.03476

>  <VolSurf_HL2>
0.427907

>  <VolSurf_A>
2.19992

>  <VolSurf_CP>
2.53855

>  <VolSurf_POL>
49.518

>  <VolSurf_MW>
465.545

>  <VolSurf_FLEX>
1.55841

>  <VolSurf_FLEX_RB>
0.155841

>  <VolSurf_NCC>
1.0

>  <VolSurf_LOGP n-Oct>
3.494

>  <VolSurf_LOGP c-Hex>
-0.994

>  <VolSurf_PSA>
121.382

>  <VolSurf_HSA>
538.394

>  <VolSurf_PSAR>
0.183975

>  <VolSurf_PHSAR>
0.225453

>  <VolSurf_LgD5>
0.596487

>  <VolSurf_LgD6>
1.48233

>  <VolSurf_LgD7>
2.43336

>  <VolSurf_LgD7.5>
2.85127

>  <VolSurf_LgD8>
3.13602

>  <VolSurf_LgD9>
2.96248

>  <VolSurf_LgD10>
2.11715

>  <VolSurf_AUS7.4>
1.29605

>  <VolSurf_%FU4>
0.00951042

>  <VolSurf_%FU5>
0.0950228

>  <VolSurf_%FU6>
0.942151

>  <VolSurf_%FU7>
8.66794

>  <VolSurf_%FU8>
43.8375

>  <VolSurf_%FU9>
29.3869

>  <VolSurf_%FU10>
4.16875

>  <ID>
38

>  <MOKAID>
39

>  <Clearance Route>
possible billary

>  <PC1>
1.3529200000000001

>  <PC2>
-2.16534

$$$$
Antipyrine
  -OEChem-08301611272D

 14 15  0     0  0  0  0  0  0999 V2000
    0.4993    2.5428    0.0000 C   0  0  0  0  0  0  0  0  0  0  0  0
    0.5008    1.5428    0.0000 N   0  0  0  0  0  0  0  0  0  0  0  0
    1.3133    0.9519    0.0000 N   0  0  0  0  0  0  0  0  0  0  0  0
    1.0015    0.0000    0.0000 C   0  0  0  0  0  0  0  0  0  0  0  0
    1.5883   -0.8097    0.0000 O   0  0  0  0  0  0  0  0  0  0  0  0
    0.0000    0.0000    0.0000 C   0  0  0  0  0  0  0  0  0  0  0  0
   -0.3065    0.9519    0.0000 C   0  0  0  0  0  0  0  0  0  0  0  0
   -1.2577    1.2605    0.0000 C   0  0  0  0  0  0  0  0  0  0  0  0
    2.2648    1.2596    0.0000 C   0  0  0  0  0  0  0  0  0  0  0  0
    2.4723    2.2431    0.0000 C   0  0  0  0  0  0  0  0  0  0  0  0
    3.4238    2.5508    0.0000 C   0  0  0  0  0  0  0  0  0  0  0  0
    4.1699    1.8850    0.0000 C   0  0  0  0  0  0  0  0  0  0  0  0
    3.9624    0.9014    0.0000 C   0  0  0  0  0  0  0  0  0  0  0  0
    3.0088    0.5837    0.0000 C   0  0  0  0  0  0  0  0  0  0  0  0
  1  2  1  0  0  0  0
  2  7  1  0  0  0  0
  2  3  1  0  0  0  0
  3  4  1  0  0  0  0
  4  5  2  0  0  0  0
  4  6  1  0  0  0  0
  6  7  2  0  0  0  0
  7  8  1  0  0  0  0
  3  9  1  0  0  0  0
  9 14  2  0  0  0  0
  9 10  1  0  0  0  0
 10 11  2  0  0  0  0
 11 12  1  0  0  0  0
 12 13  2  0  0  0  0
 13 14  1  0  0  0  0
M  END
>  <Name>
Antipyrine

>  <CAS #>
60-80-0

>  <human Clearance (mL/min/kg)>
0.64

>  <Primary mechanism (metabolic, biliary or renal)>
metabolic

>  <seqId>
62.0

>  <Code (mechanism and clearance degree index)>
M1

>  < Five M1 and R1 test groups>
M1_5

>  <formamide>
0

>  <prodrug phosphates>
0

>  <VolSurf_V>
473.875

>  <VolSurf_S>
334.157

>  <VolSurf_R>
1.41812

>  <VolSurf_G>
1.21209

>  <VolSurf_IW1>
0.126004

>  <VolSurf_IW2>
0.608146

>  <VolSurf_IW3>
1.34267

>  <VolSurf_IW4>
1.85888

>  <VolSurf_ID1>
0.0353032

>  <VolSurf_ID2>
0.0538488

>  <VolSurf_ID3>
0.0501104

>  <VolSurf_ID4>
0.102963

>  <VolSurf_HL1>
0.622807

>  <VolSurf_HL2>
0.555133

>  <VolSurf_A>
5.07152

>  <VolSurf_CP>
6.02837

>  <VolSurf_POL>
21.392

>  <VolSurf_MW>
188.226

>  <VolSurf_FLEX>
0.230084

>  <VolSurf_FLEX_RB>
0.0766946

>  <VolSurf_NCC>
0.0

>  <VolSurf_LOGP n-Oct>
0.188

>  <VolSurf_LOGP c-Hex>
0.923

>  <VolSurf_PSA>
23.09

>  <VolSurf_HSA>
311.067

>  <VolSurf_PSAR>
0.0690992

>  <VolSurf_PHSAR>
0.0742283

>  <VolSurf_LgD5>
0.188

>  <VolSurf_LgD6>
0.188

>  <VolSurf_LgD7>
0.188

>  <VolSurf_LgD7.5>
0.188

>  <VolSurf_LgD8>
0.188

>  <VolSurf_LgD9>
0.188

>  <VolSurf_LgD10>
0.188

>  <VolSurf_AUS7.4>
2.0

>  <VolSurf_%FU4>
100.0

>  <VolSurf_%FU5>
100.0

>  <VolSurf_%FU6>
100.0

>  <VolSurf_%FU7>
100.0

>  <VolSurf_%FU8>
100.0

>  <VolSurf_%FU9>
100.0

>  <VolSurf_%FU10>
100.0

>  <ID>
39

>  <MOKAID>
40

>  <Clearance Route>
metabolic

>  <PC1>
4.11144

>  <PC2>
3.86046

$$$$
Apomorphine
  -OEChem-08301611272D

 21 24  0     1  0  0  0  0  0999 V2000
    3.4933    1.0293    0.0000 C   0  0  0  0  0  0  0  0  0  0  0  0
    2.6179    1.5240    0.0000 C   0  0  0  0  0  0  0  0  0  0  0  0
    1.7483    1.0172    0.0000 C   0  0  0  0  0  0  0  0  0  0  0  0
    1.7493    0.0050    0.0000 C   0  0  0  0  0  0  0  0  0  0  0  0
    0.8749   -0.5054    0.0000 C   0  0  0  0  0  0  0  0  0  0  0  0
   -0.0000    0.0000    0.0000 C   0  0  0  0  0  0  0  0  0  0  0  0
    0.0014    1.0126    0.0000 C   0  0  0  0  0  0  0  0  0  0  0  0
    0.8727    1.5179    0.0000 C   0  0  0  0  0  0  0  0  0  0  0  0
    0.8697    2.5179    0.0000 O   0  0  0  0  0  0  0  0  0  0  0  0
   -0.8648    1.5124    0.0000 O   0  0  0  0  0  0  0  0  0  0  0  0
    2.6248   -0.4979    0.0000 C   0  0  0  0  0  0  0  0  0  0  0  0
    3.4985    0.0102    0.0000 C   0  0  1  0  0  0  0  0  0  0  0  0
    4.3788   -0.4915    0.0000 N   0  0  1  0  0  0  0  0  0  0  0  0
    5.2552    0.0208    0.0000 C   0  0  0  0  0  0  0  0  0  0  0  0
    5.2458    1.0402    0.0000 C   0  0  0  0  0  0  0  0  0  0  0  0
    4.3547    1.5371    0.0000 C   0  0  0  0  0  0  0  0  0  0  0  0
    4.3484    2.5419    0.0000 C   0  0  0  0  0  0  0  0  0  0  0  0
    3.4730    3.0368    0.0000 C   0  0  0  0  0  0  0  0  0  0  0  0
    2.6040    2.5267    0.0000 C   0  0  0  0  0  0  0  0  0  0  0  0
    4.3843   -1.4915    0.0000 C   0  0  0  0  0  0  0  0  0  0  0  0
    3.5029   -0.9898    0.0000 H   0  0  0  0  0  0  0  0  0  0  0  0
  1 12  1  0  0  0  0
  1 16  2  0  0  0  0
  1  2  1  0  0  0  0
  2 19  2  0  0  0  0
  2  3  1  0  0  0  0
  3  8  2  0  0  0  0
  3  4  1  0  0  0  0
  4  5  2  0  0  0  0
  5  6  1  0  0  0  0
  6  7  2  0  0  0  0
  7  8  1  0  0  0  0
  8  9  1  0  0  0  0
  7 10  1  0  0  0  0
  4 11  1  0  0  0  0
 11 12  1  0  0  0  0
 12 13  1  0  0  0  0
 13 14  1  0  0  0  0
 14 15  1  0  0  0  0
 15 16  1  0  0  0  0
 16 17  1  0  0  0  0
 17 18  2  0  0  0  0
 18 19  1  0  0  0  0
 13 20  1  1  0  0  0
 12 21  1  1  0  0  0
M  END
>  <Name>
Apomorphine

>  <CAS #>
58-00-4

>  <human Clearance (mL/min/kg)>
40.0

>  <Primary mechanism (metabolic, biliary or renal)>
metabolic

>  <seqId>
67.0

>  <Code (mechanism and clearance degree index)>
M1

>  < Five M1 and R1 test groups>
M1_3

>  <formamide>
0

>  <prodrug phosphates>
0

>  <VolSurf_V>
599.125

>  <VolSurf_S>
409.949

>  <VolSurf_R>
1.46146

>  <VolSurf_G>
1.30272

>  <VolSurf_IW1>
0.0817177

>  <VolSurf_IW2>
0.32944

>  <VolSurf_IW3>
0.909023

>  <VolSurf_IW4>
1.38868

>  <VolSurf_ID1>
0.0263759

>  <VolSurf_ID2>
0.007515

>  <VolSurf_ID3>
0.030985

>  <VolSurf_ID4>
0.043729

>  <VolSurf_HL1>
0.555814

>  <VolSurf_HL2>
0.427451

>  <VolSurf_A>
4.06013

>  <VolSurf_CP>
34.8258

>  <VolSurf_POL>
32.269

>  <VolSurf_MW>
268.33

>  <VolSurf_FLEX>
2.69601E-6

>  <VolSurf_FLEX_RB>
8.98671E-7

>  <VolSurf_NCC>
1.0

>  <VolSurf_LOGP n-Oct>
2.984

>  <VolSurf_LOGP c-Hex>
-0.797

>  <VolSurf_PSA>
51.87

>  <VolSurf_HSA>
358.079

>  <VolSurf_PSAR>
0.126528

>  <VolSurf_PHSAR>
0.144856

>  <VolSurf_LgD5>
-0.0828179

>  <VolSurf_LgD6>
0.740003

>  <VolSurf_LgD7>
1.69727

>  <VolSurf_LgD7.5>
2.14937

>  <VolSurf_LgD8>
2.52635

>  <VolSurf_LgD9>
2.83048

>  <VolSurf_LgD10>
2.44902

>  <VolSurf_AUS7.4>
1.10268

>  <VolSurf_%FU4>
0.00541604

>  <VolSurf_%FU5>
0.054134

>  <VolSurf_%FU6>
0.538715

>  <VolSurf_%FU7>
5.13741

>  <VolSurf_%FU8>
34.8404

>  <VolSurf_%FU9>
70.2025

>  <VolSurf_%FU10>
29.1073

>  <ID>
40

>  <MOKAID>
41

>  <Clearance Route>
metabolic

>  <PC1>
2.90693

>  <PC2>
0.540392

$$$$
Aripiprazole
  -OEChem-08301611272D

 30 33  0     0  0  0  0  0  0999 V2000
   -0.9001   10.5267    0.0000 Cl  0  0  0  0  0  0  0  0  0  0  0  0
   -1.7617   10.0190    0.0000 C   0  0  0  0  0  0  0  0  0  0  0  0
   -2.6352   10.5165    0.0000 C   0  0  0  0  0  0  0  0  0  0  0  0
   -3.4968   10.0088    0.0000 C   0  0  0  0  0  0  0  0  0  0  0  0
   -3.4938    9.0088    0.0000 C   0  0  0  0  0  0  0  0  0  0  0  0
   -2.6203    8.5114    0.0000 C   0  0  0  0  0  0  0  0  0  0  0  0
   -2.6173    7.5114    0.0000 N   0  0  0  0  0  0  0  0  0  0  0  0
   -3.4832    7.0013    0.0000 C   0  0  0  0  0  0  0  0  0  0  0  0
   -3.4803    5.9962    0.0000 C   0  0  0  0  0  0  0  0  0  0  0  0
   -2.6114    5.5012    0.0000 N   0  0  0  0  0  0  0  0  0  0  0  0
   -2.6084    4.5012    0.0000 C   0  0  0  0  0  0  0  0  0  0  0  0
   -1.7409    4.0038    0.0000 C   0  0  0  0  0  0  0  0  0  0  0  0
   -1.7380    3.0038    0.0000 C   0  0  0  0  0  0  0  0  0  0  0  0
   -0.8705    2.5063    0.0000 C   0  0  0  0  0  0  0  0  0  0  0  0
   -0.8675    1.5063    0.0000 O   0  0  0  0  0  0  0  0  0  0  0  0
    0.0000    1.0089    0.0000 C   0  0  0  0  0  0  0  0  0  0  0  0
    0.0000    0.0000    0.0000 C   0  0  0  0  0  0  0  0  0  0  0  0
    0.8707   -0.4993    0.0000 C   0  0  0  0  0  0  0  0  0  0  0  0
    1.7371    0.0000    0.0000 C   0  0  0  0  0  0  0  0  0  0  0  0
    2.6039   -0.5053    0.0000 C   0  0  0  0  0  0  0  0  0  0  0  0
    3.4805   -0.0073    0.0000 C   0  0  0  0  0  0  0  0  0  0  0  0
    3.4848    1.0014    0.0000 C   0  0  0  0  0  0  0  0  0  0  0  0
    4.3535    1.4968    0.0000 O   0  0  0  0  0  0  0  0  0  0  0  0
    2.6125    1.5125    0.0000 N   0  0  0  0  0  0  0  0  0  0  0  0
    1.7414    1.0089    0.0000 C   0  0  0  0  0  0  0  0  0  0  0  0
    0.8707    1.5185    0.0000 C   0  0  0  0  0  0  0  0  0  0  0  0
   -1.7455    6.0014    0.0000 C   0  0  0  0  0  0  0  0  0  0  0  0
   -1.7484    7.0064    0.0000 C   0  0  0  0  0  0  0  0  0  0  0  0
   -1.7498    9.0140    0.0000 C   0  0  0  0  0  0  0  0  0  0  0  0
   -0.8809    8.5191    0.0000 Cl  0  0  0  0  0  0  0  0  0  0  0  0
  1  2  1  0  0  0  0
  2 29  2  0  0  0  0
  2  3  1  0  0  0  0
  3  4  2  0  0  0  0
  4  5  1  0  0  0  0
  5  6  2  0  0  0  0
  6  7  1  0  0  0  0
  7 28  1  0  0  0  0
  7  8  1  0  0  0  0
  8  9  1  0  0  0  0
  9 10  1  0  0  0  0
 10 11  1  0  0  0  0
 11 12  1  0  0  0  0
 12 13  1  0  0  0  0
 13 14  1  0  0  0  0
 14 15  1  0  0  0  0
 15 16  1  0  0  0  0
 16 26  2  0  0  0  0
 16 17  1  0  0  0  0
 17 18  2  0  0  0  0
 18 19  1  0  0  0  0
 19 25  2  0  0  0  0
 19 20  1  0  0  0  0
 20 21  1  0  0  0  0
 21 22  1  0  0  0  0
 22 23  2  0  0  0  0
 22 24  1  0  0  0  0
 24 25  1  0  0  0  0
 25 26  1  0  0  0  0
 10 27  1  0  0  0  0
 27 28  1  0  0  0  0
  6 29  1  0  0  0  0
 29 30  1  0  0  0  0
M  END
>  <Name>
Aripiprazole

>  <CAS #>
129722-12-9

>  <human Clearance (mL/min/kg)>
0.83

>  <Primary mechanism (metabolic, biliary or renal)>
metabolic

>  <seqId>
70.0

>  <Code (mechanism and clearance degree index)>
M1

>  < Five M1 and R1 test groups>
M1_2

>  <formamide>
0

>  <prodrug phosphates>
0

>  <VolSurf_V>
991.25

>  <VolSurf_S>
667.47

>  <VolSurf_R>
1.48509

>  <VolSurf_G>
1.63583

>  <VolSurf_IW1>
0.062222

>  <VolSurf_IW2>
0.350808

>  <VolSurf_IW3>
1.01089

>  <VolSurf_IW4>
1.58995

>  <VolSurf_ID1>
0.0441836

>  <VolSurf_ID2>
0.0719544

>  <VolSurf_ID3>
0.0674415

>  <VolSurf_ID4>
0.121191

>  <VolSurf_HL1>
0.531823

>  <VolSurf_HL2>
0.453686

>  <VolSurf_A>
9.35586

>  <VolSurf_CP>
2.80652

>  <VolSurf_POL>
49.247

>  <VolSurf_MW>
449.393

>  <VolSurf_FLEX>
2.85644

>  <VolSurf_FLEX_RB>
0.408062

>  <VolSurf_NCC>
1.0

>  <VolSurf_LOGP n-Oct>
5.233

>  <VolSurf_LOGP c-Hex>
3.412

>  <VolSurf_PSA>
54.95

>  <VolSurf_HSA>
612.52

>  <VolSurf_PSAR>
0.0823258

>  <VolSurf_PHSAR>
0.0897114

>  <VolSurf_LgD5>
2.56863

>  <VolSurf_LgD6>
3.49349

>  <VolSurf_LgD7>
4.42127

>  <VolSurf_LgD7.5>
4.79589

>  <VolSurf_LgD8>
5.0429

>  <VolSurf_LgD9>
5.20977

>  <VolSurf_LgD10>
5.2306

>  <VolSurf_AUS7.4>
1.50613

>  <VolSurf_%FU4>
0.0181891

>  <VolSurf_%FU5>
0.181654

>  <VolSurf_%FU6>
1.78738

>  <VolSurf_%FU7>
15.397

>  <VolSurf_%FU8>
64.5379

>  <VolSurf_%FU9>
94.791

>  <VolSurf_%FU10>
99.4482

>  <ID>
41

>  <MOKAID>
42

>  <Clearance Route>
metabolic

>  <PC1>
4.77427

>  <PC2>
-2.0714200000000003

$$$$
Atenolol
  -OEChem-08301611272D

 19 19  0     1  0  0  0  0  0999 V2000
    6.9311    1.9848    0.0000 C   0  0  0  0  0  0  0  0  0  0  0  0
    6.0636    1.4874    0.0000 C   0  0  0  0  0  0  0  0  0  0  0  0
    6.0607    0.4874    0.0000 C   0  0  0  0  0  0  0  0  0  0  0  0
    5.1991    1.9899    0.0000 N   0  0  0  0  0  0  0  0  0  0  0  0
    4.3316    1.4925    0.0000 C   0  0  0  0  0  0  0  0  0  0  0  0
    3.4670    1.9950    0.0000 C   0  0  3  0  0  0  0  0  0  0  0  0
    3.4700    2.9950    0.0000 O   0  0  0  0  0  0  0  0  0  0  0  0
    2.5995    1.4976    0.0000 C   0  0  0  0  0  0  0  0  0  0  0  0
    1.7350    2.0001    0.0000 O   0  0  0  0  0  0  0  0  0  0  0  0
    0.8675    1.5027    0.0000 C   0  0  0  0  0  0  0  0  0  0  0  0
    0.8675    0.4975    0.0000 C   0  0  0  0  0  0  0  0  0  0  0  0
    0.0000    0.0000    0.0000 C   0  0  0  0  0  0  0  0  0  0  0  0
   -0.8675    0.4975    0.0000 C   0  0  0  0  0  0  0  0  0  0  0  0
   -1.7328   -0.0038    0.0000 C   0  0  0  0  0  0  0  0  0  0  0  0
   -1.7313   -1.0038    0.0000 C   0  0  0  0  0  0  0  0  0  0  0  0
   -0.8646   -1.5025    0.0000 O   0  0  0  0  0  0  0  0  0  0  0  0
   -2.5966   -1.5050    0.0000 N   0  0  0  0  0  0  0  0  0  0  0  0
   -0.8675    1.5027    0.0000 C   0  0  0  0  0  0  0  0  0  0  0  0
    0.0000    2.0104    0.0000 C   0  0  0  0  0  0  0  0  0  0  0  0
  1  2  1  0  0  0  0
  2  3  1  0  0  0  0
  2  4  1  0  0  0  0
  4  5  1  0  0  0  0
  5  6  1  0  0  0  0
  6  7  1  0  0  0  0
  6  8  1  0  0  0  0
  8  9  1  0  0  0  0
  9 10  1  0  0  0  0
 10 19  2  0  0  0  0
 10 11  1  0  0  0  0
 11 12  2  0  0  0  0
 12 13  1  0  0  0  0
 13 14  1  0  0  0  0
 14 15  1  0  0  0  0
 15 16  2  0  0  0  0
 15 17  1  0  0  0  0
 13 18  2  0  0  0  0
 18 19  1  0  0  0  0
M  END
>  <Name>
Atenolol

>  <CAS #>
29122-68-7

>  <human Clearance (mL/min/kg)>
2.5

>  <Primary mechanism (metabolic, biliary or renal)>
renal

>  <seqId>
75.0

>  <Code (mechanism and clearance degree index)>
R1

>  < Five M1 and R1 test groups>
R1_1

>  <formamide>
0

>  <prodrug phosphates>
0

>  <VolSurf_V>
662.875

>  <VolSurf_S>
476.766

>  <VolSurf_R>
1.39036

>  <VolSurf_G>
1.47673

>  <VolSurf_IW1>
0.0450622

>  <VolSurf_IW2>
0.100201

>  <VolSurf_IW3>
0.209892

>  <VolSurf_IW4>
0.375999

>  <VolSurf_ID1>
0.0041758

>  <VolSurf_ID2>
0.116204

>  <VolSurf_ID3>
0.219796

>  <VolSurf_ID4>
0.33984

>  <VolSurf_HL1>
3.37131

>  <VolSurf_HL2>
4.00935

>  <VolSurf_A>
2.01036

>  <VolSurf_CP>
0.427755

>  <VolSurf_POL>
31.934

>  <VolSurf_MW>
267.344

>  <VolSurf_FLEX>
1.84997

>  <VolSurf_FLEX_RB>
0.154165

>  <VolSurf_NCC>
1.0

>  <VolSurf_LOGP n-Oct>
0.347

>  <VolSurf_LOGP c-Hex>
-0.87

>  <VolSurf_PSA>
98.33

>  <VolSurf_HSA>
378.436

>  <VolSurf_PSAR>
0.206244

>  <VolSurf_PHSAR>
0.259832

>  <VolSurf_LgD5>
-3.02833

>  <VolSurf_LgD6>
-2.65068

>  <VolSurf_LgD7>
-1.81999

>  <VolSurf_LgD7.5>
-1.34174

>  <VolSurf_LgD8>
-0.865335

>  <VolSurf_LgD9>
-0.0575403

>  <VolSurf_LgD10>
0.284168

>  <VolSurf_AUS7.4>
0.362752

>  <VolSurf_%FU4>
6.49557E-4

>  <VolSurf_%FU5>
0.00649519

>  <VolSurf_%FU6>
0.064914

>  <VolSurf_%FU7>
0.645369

>  <VolSurf_%FU8>
6.09941

>  <VolSurf_%FU9>
39.3751

>  <VolSurf_%FU10>
86.5254

>  <ID>
42

>  <MOKAID>
43

>  <Clearance Route>
renal

>  <PC1>
-0.9396610000000001

>  <PC2>
0.456938

$$$$
Atomoxetine
  -OEChem-08301611272D

 19 20  0     1  0  0  0  0  0999 V2000
   -0.8653   -1.4962    0.0000 C   0  0  0  0  0  0  0  0  0  0  0  0
    0.0000   -1.9975    0.0000 N   0  0  0  0  0  0  0  0  0  0  0  0
    0.8668   -1.4987    0.0000 C   0  0  0  0  0  0  0  0  0  0  0  0
    1.7321   -2.0000    0.0000 C   0  0  0  0  0  0  0  0  0  0  0  0
    2.5988   -1.5013    0.0000 C   0  0  1  0  0  0  0  0  0  0  0  0
    2.6003   -0.5013    0.0000 O   0  0  0  0  0  0  0  0  0  0  0  0
    1.7350    0.0000    0.0000 C   0  0  0  0  0  0  0  0  0  0  0  0
    0.8675   -0.4975    0.0000 C   0  0  0  0  0  0  0  0  0  0  0  0
    0.0000    0.0000    0.0000 C   0  0  0  0  0  0  0  0  0  0  0  0
   -0.0000    1.0052    0.0000 C   0  0  0  0  0  0  0  0  0  0  0  0
    0.8675    1.5129    0.0000 C   0  0  0  0  0  0  0  0  0  0  0  0
    1.7350    1.0052    0.0000 C   0  0  0  0  0  0  0  0  0  0  0  0
    2.6025    1.5026    0.0000 C   0  0  0  0  0  0  0  0  0  0  0  0
    3.4641   -2.0025    0.0000 C   0  0  0  0  0  0  0  0  0  0  0  0
    4.3339   -1.4986    0.0000 C   0  0  0  0  0  0  0  0  0  0  0  0
    5.1993   -1.9998    0.0000 C   0  0  0  0  0  0  0  0  0  0  0  0
    5.2037   -2.9999    0.0000 C   0  0  0  0  0  0  0  0  0  0  0  0
    4.3339   -3.5038    0.0000 C   0  0  0  0  0  0  0  0  0  0  0  0
    3.4597   -3.0076    0.0000 C   0  0  0  0  0  0  0  0  0  0  0  0
  1  2  1  0  0  0  0
  2  3  1  0  0  0  0
  3  4  1  0  0  0  0
  5  4  1  1  0  0  0
  5  6  1  0  0  0  0
  6  7  1  0  0  0  0
  7 12  2  0  0  0  0
  7  8  1  0  0  0  0
  8  9  2  0  0  0  0
  9 10  1  0  0  0  0
 10 11  2  0  0  0  0
 11 12  1  0  0  0  0
 12 13  1  0  0  0  0
  5 14  1  0  0  0  0
 14 19  2  0  0  0  0
 14 15  1  0  0  0  0
 15 16  2  0  0  0  0
 16 17  1  0  0  0  0
 17 18  2  0  0  0  0
 18 19  1  0  0  0  0
M  END
>  <Name>
Atomoxetine

>  <CAS #>
83015-26-3

>  <human Clearance (mL/min/kg)>
9.3

>  <Primary mechanism (metabolic, biliary or renal)>
metabolic

>  <seqId>
77.0

>  <Code (mechanism and clearance degree index)>
M1

>  < Five M1 and R1 test groups>
M1_2

>  <formamide>
0

>  <prodrug phosphates>
0

>  <VolSurf_V>
677.125

>  <VolSurf_S>
455.25

>  <VolSurf_R>
1.48737

>  <VolSurf_G>
1.3489

>  <VolSurf_IW1>
0.0191941

>  <VolSurf_IW2>
0.153481

>  <VolSurf_IW3>
0.680598

>  <VolSurf_IW4>
1.29971

>  <VolSurf_ID1>
0.0192178

>  <VolSurf_ID2>
0.0554362

>  <VolSurf_ID3>
0.116491

>  <VolSurf_ID4>
0.145986

>  <VolSurf_HL1>
0.25779

>  <VolSurf_HL2>
0.149171

>  <VolSurf_A>
4.70201

>  <VolSurf_CP>
6.0651

>  <VolSurf_POL>
34.18

>  <VolSurf_MW>
256.363

>  <VolSurf_FLEX>
1.92752

>  <VolSurf_FLEX_RB>
0.24094

>  <VolSurf_NCC>
1.0

>  <VolSurf_LOGP n-Oct>
3.614

>  <VolSurf_LOGP c-Hex>
3.943

>  <VolSurf_PSA>
35.01

>  <VolSurf_HSA>
420.24

>  <VolSurf_PSAR>
0.0769028

>  <VolSurf_PHSAR>
0.0833096

>  <VolSurf_LgD5>
-0.0131408

>  <VolSurf_LgD6>
0.320998

>  <VolSurf_LgD7>
1.12383

>  <VolSurf_LgD7.5>
1.60176

>  <VolSurf_LgD8>
2.08665

>  <VolSurf_LgD9>
2.98177

>  <VolSurf_LgD10>
3.49048

>  <VolSurf_AUS7.4>
0.163628

>  <VolSurf_%FU4>
3.03893E-4

>  <VolSurf_%FU5>
0.00303885

>  <VolSurf_%FU6>
0.0303802

>  <VolSurf_%FU7>
0.302973

>  <VolSurf_%FU8>
2.94931

>  <VolSurf_%FU9>
23.3067

>  <VolSurf_%FU10>
75.241

>  <ID>
43

>  <MOKAID>
44

>  <Clearance Route>
metabolic

>  <PC1>
2.61877

>  <PC2>
0.474879

$$$$
Atracurium
  -OEChem-08301611272D

 67 72  0     1  0  0  0  0  0999 V2000
   -0.8555    5.5136    0.0000 C   0  0  0  0  0  0  0  0  0  0  0  0
   -0.8540    4.5136    0.0000 O   0  0  0  0  0  0  0  0  0  0  0  0
    0.0128    4.0149    0.0000 C   0  0  0  0  0  0  0  0  0  0  0  0
    0.0157    3.0149    0.0000 C   0  0  0  0  0  0  0  0  0  0  0  0
    0.8803    2.5124    0.0000 C   0  0  0  0  0  0  0  0  0  0  0  0
    1.7508    3.0150    0.0000 C   0  0  0  0  0  0  0  0  0  0  0  0
    2.6154    2.5125    0.0000 C   0  0  0  0  0  0  0  0  0  0  0  0
    2.6125    1.5125    0.0000 C   0  0  3  0  0  0  0  0  0  0  0  0
    1.7414    1.0089    0.0000 C   0  0  0  0  0  0  0  0  0  0  0  0
    0.8707    1.5185    0.0000 C   0  0  0  0  0  0  0  0  0  0  0  0
    0.0000    1.0089    0.0000 C   0  0  0  0  0  0  0  0  0  0  0  0
   -0.8675    1.5063    0.0000 O   0  0  0  0  0  0  0  0  0  0  0  0
   -1.7320    1.0038    0.0000 C   0  0  0  0  0  0  0  0  0  0  0  0
    0.0000    0.0000    0.0000 C   0  0  0  0  0  0  0  0  0  0  0  0
   -0.8653   -0.5013    0.0000 O   0  0  0  0  0  0  0  0  0  0  0  0
   -0.8638   -1.5013    0.0000 C   0  0  0  0  0  0  0  0  0  0  0  0
    0.8707   -0.4993    0.0000 C   0  0  0  0  0  0  0  0  0  0  0  0
    1.7371    0.0000    0.0000 C   0  0  0  0  0  0  0  0  0  0  0  0
    2.6039   -0.5053    0.0000 C   0  0  0  0  0  0  0  0  0  0  0  0
    3.4805   -0.0073    0.0000 C   0  0  0  0  0  0  0  0  0  0  0  0
    3.4848    1.0014    0.0000 N   0  3  3  0  0  0  0  0  0  0  0  0
    3.8322    1.9391    0.0000 C   0  0  0  0  0  0  0  0  0  0  0  0
    4.4687    0.8229    0.0000 C   0  0  0  0  0  0  0  0  0  0  0  0
    5.1153    1.5857    0.0000 C   0  0  0  0  0  0  0  0  0  0  0  0
    6.0993    1.4071    0.0000 C   0  0  0  0  0  0  0  0  0  0  0  0
    6.4366    0.4658    0.0000 O   0  0  0  0  0  0  0  0  0  0  0  0
    6.7458    2.1700    0.0000 O   0  0  0  0  0  0  0  0  0  0  0  0
    7.7298    1.9914    0.0000 C   0  0  0  0  0  0  0  0  0  0  0  0
    8.3764    2.7543    0.0000 C   0  0  0  0  0  0  0  0  0  0  0  0
    9.3603    2.5757    0.0000 C   0  0  0  0  0  0  0  0  0  0  0  0
   10.0069    3.3386    0.0000 C   0  0  0  0  0  0  0  0  0  0  0  0
   10.9908    3.1600    0.0000 C   0  0  0  0  0  0  0  0  0  0  0  0
   11.6374    3.9228    0.0000 O   0  0  0  0  0  0  0  0  0  0  0  0
   12.6213    3.7443    0.0000 C   0  0  0  0  0  0  0  0  0  0  0  0
   12.9587    2.8029    0.0000 O   0  0  0  0  0  0  0  0  0  0  0  0
   13.2679    4.5071    0.0000 C   0  0  0  0  0  0  0  0  0  0  0  0
   14.2519    4.3286    0.0000 C   0  0  0  0  0  0  0  0  0  0  0  0
   14.8985    5.0914    0.0000 N   0  3  3  0  0  0  0  0  0  0  0  0
   14.0346    5.5951    0.0000 C   0  0  0  0  0  0  0  0  0  0  0  0
   15.2468    6.0381    0.0000 C   0  0  0  0  0  0  0  0  0  0  0  0
   16.2408    6.2069    0.0000 C   0  0  0  0  0  0  0  0  0  0  0  0
   16.8830    5.4361    0.0000 C   0  0  0  0  0  0  0  0  0  0  0  0
   17.8678    5.6097    0.0000 C   0  0  0  0  0  0  0  0  0  0  0  0
   18.5158    4.8431    0.0000 C   0  0  0  0  0  0  0  0  0  0  0  0
   19.5002    5.0189    0.0000 O   0  0  0  0  0  0  0  0  0  0  0  0
   19.8402    5.9594    0.0000 C   0  0  0  0  0  0  0  0  0  0  0  0
   18.1714    3.8948    0.0000 C   0  0  0  0  0  0  0  0  0  0  0  0
   18.8170    3.1312    0.0000 O   0  0  0  0  0  0  0  0  0  0  0  0
   19.8012    3.3084    0.0000 C   0  0  0  0  0  0  0  0  0  0  0  0
   17.1790    3.7131    0.0000 C   0  0  0  0  0  0  0  0  0  0  0  0
   16.5346    4.4893    0.0000 C   0  0  0  0  0  0  0  0  0  0  0  0
   15.5439    4.3133    0.0000 C   0  0  3  0  0  0  0  0  0  0  0  0
   15.1998    3.3743    0.0000 C   0  0  0  0  0  0  0  0  0  0  0  0
   15.8409    2.6069    0.0000 C   0  0  0  0  0  0  0  0  0  0  0  0
   16.8307    2.7822    0.0000 C   0  0  0  0  0  0  0  0  0  0  0  0
   17.4719    2.0147    0.0000 C   0  0  0  0  0  0  0  0  0  0  0  0
   17.1333    1.0737    0.0000 C   0  0  0  0  0  0  0  0  0  0  0  0
   17.7778    0.3091    0.0000 O   0  0  0  0  0  0  0  0  0  0  0  0
   17.4378   -0.6313    0.0000 C   0  0  0  0  0  0  0  0  0  0  0  0
   16.1435    0.8984    0.0000 C   0  0  0  0  0  0  0  0  0  0  0  0
   15.8049   -0.0425    0.0000 O   0  0  0  0  0  0  0  0  0  0  0  0
   14.8208   -0.2198    0.0000 C   0  0  0  0  0  0  0  0  0  0  0  0
   15.4923    1.6641    0.0000 C   0  0  0  0  0  0  0  0  0  0  0  0
    1.7567    4.0201    0.0000 C   0  0  0  0  0  0  0  0  0  0  0  0
    0.8833    4.5175    0.0000 C   0  0  0  0  0  0  0  0  0  0  0  0
    0.8803    5.5175    0.0000 O   0  0  0  0  0  0  0  0  0  0  0  0
    0.0128    6.0149    0.0000 C   0  0  0  0  0  0  0  0  0  0  0  0
  1  2  1  0  0  0  0
  2  3  1  0  0  0  0
  3 65  2  0  0  0  0
  3  4  1  0  0  0  0
  4  5  2  0  0  0  0
  5  6  1  0  0  0  0
  6  7  1  0  0  0  0
  7  8  1  0  0  0  0
  8 21  1  0  0  0  0
  8  9  1  0  0  0  0
  9 18  2  0  0  0  0
  9 10  1  0  0  0  0
 10 11  2  0  0  0  0
 11 12  1  0  0  0  0
 12 13  1  0  0  0  0
 11 14  1  0  0  0  0
 14 15  1  0  0  0  0
 15 16  1  0  0  0  0
 14 17  2  0  0  0  0
 17 18  1  0  0  0  0
 18 19  1  0  0  0  0
 19 20  1  0  0  0  0
 20 21  1  0  0  0  0
 21 22  1  0  0  0  0
 21 23  1  0  0  0  0
 23 24  1  0  0  0  0
 24 25  1  0  0  0  0
 25 26  2  0  0  0  0
 25 27  1  0  0  0  0
 27 28  1  0  0  0  0
 28 29  1  0  0  0  0
 29 30  1  0  0  0  0
 30 31  1  0  0  0  0
 31 32  1  0  0  0  0
 32 33  1  0  0  0  0
 33 34  1  0  0  0  0
 34 35  2  0  0  0  0
 34 36  1  0  0  0  0
 36 37  1  0  0  0  0
 37 38  1  0  0  0  0
 38 52  1  0  0  0  0
 38 39  1  0  0  0  0
 38 40  1  0  0  0  0
 40 41  1  0  0  0  0
 41 42  1  0  0  0  0
 42 51  2  0  0  0  0
 42 43  1  0  0  0  0
 43 44  2  0  0  0  0
 44 45  1  0  0  0  0
 45 46  1  0  0  0  0
 44 47  1  0  0  0  0
 47 48  1  0  0  0  0
 48 49  1  0  0  0  0
 47 50  2  0  0  0  0
 50 51  1  0  0  0  0
 51 52  1  0  0  0  0
 52 53  1  0  0  0  0
 53 54  1  0  0  0  0
 54 63  2  0  0  0  0
 54 55  1  0  0  0  0
 55 56  2  0  0  0  0
 56 57  1  0  0  0  0
 57 58  1  0  0  0  0
 58 59  1  0  0  0  0
 57 60  2  0  0  0  0
 60 61  1  0  0  0  0
 61 62  1  0  0  0  0
 60 63  1  0  0  0  0
  6 64  2  0  0  0  0
 64 65  1  0  0  0  0
 65 66  1  0  0  0  0
 66 67  1  0  0  0  0
M  CHG  2  21   1  38   1
M  END
>  <Name>
Atracurium

>  <CAS #>
64228-79-1

>  <human Clearance (mL/min/kg)>
5.7

>  <Primary mechanism (metabolic, biliary or renal)>
metabolic

>  <seqId>
79.0

>  <Code (mechanism and clearance degree index)>
M1

>  < Five M1 and R1 test groups>
M1_2

>  <formamide>
0

>  <prodrug phosphates>
0

>  <VolSurf_V>
2033.75

>  <VolSurf_S>
1297.65

>  <VolSurf_R>
1.56726

>  <VolSurf_G>
2.16128

>  <VolSurf_IW1>
0.00541524

>  <VolSurf_IW2>
0.0164875

>  <VolSurf_IW3>
0.038935

>  <VolSurf_IW4>
0.0961226

>  <VolSurf_ID1>
0.00892483

>  <VolSurf_ID2>
0.0204074

>  <VolSurf_ID3>
0.0213597

>  <VolSurf_ID4>
0.0280818

>  <VolSurf_HL1>
1.424

>  <VolSurf_HL2>
0.955959

>  <VolSurf_A>
1.39632

>  <VolSurf_CP>
2.17633

>  <VolSurf_POL>
99.9711

>  <VolSurf_MW>
929.144

>  <VolSurf_FLEX>
6.96545

>  <VolSurf_FLEX_RB>
0.193485

>  <VolSurf_NCC>
2.0

>  <VolSurf_LOGP n-Oct>
1.673

>  <VolSurf_LOGP c-Hex>
9.0

>  <VolSurf_PSA>
157.98

>  <VolSurf_HSA>
1139.67

>  <VolSurf_PSAR>
0.121743

>  <VolSurf_PHSAR>
0.138619

>  <VolSurf_LgD5>
1.673

>  <VolSurf_LgD6>
1.673

>  <VolSurf_LgD7>
1.673

>  <VolSurf_LgD7.5>
1.673

>  <VolSurf_LgD8>
1.673

>  <VolSurf_LgD9>
1.673

>  <VolSurf_LgD10>
1.673

>  <VolSurf_AUS7.4>
0.0

>  <VolSurf_%FU4>
0.0

>  <VolSurf_%FU5>
0.0

>  <VolSurf_%FU6>
0.0

>  <VolSurf_%FU7>
0.0

>  <VolSurf_%FU8>
0.0

>  <VolSurf_%FU9>
0.0

>  <VolSurf_%FU10>
0.0

>  <ID>
44

>  <MOKAID>
45

>  <Clearance Route>
possible billary

>  <PC1>
-0.302157

>  <PC2>
-9.89734

$$$$
Azacitidine
  -OEChem-08301611272D

 17 18  0     1  0  0  0  0  0999 V2000
    0.0000   -1.0000    0.0000 N   0  0  0  0  0  0  0  0  0  0  0  0
    0.0000    0.0000    0.0000 C   0  0  0  0  0  0  0  0  0  0  0  0
    0.8675    0.4975    0.0000 N   0  0  0  0  0  0  0  0  0  0  0  0
    0.8675    1.5027    0.0000 C   0  0  0  0  0  0  0  0  0  0  0  0
    1.7350    2.0001    0.0000 O   0  0  0  0  0  0  0  0  0  0  0  0
   -0.0000    2.0104    0.0000 N   0  0  0  0  0  0  0  0  0  0  0  0
   -0.8675    1.5027    0.0000 C   0  0  0  0  0  0  0  0  0  0  0  0
   -0.8675    0.4975    0.0000 N   0  0  0  0  0  0  0  0  0  0  0  0
   -0.0000    3.0104    0.0000 C   0  0  2  0  0  0  0  0  0  0  0  0
    0.8122    3.6017    0.0000 O   0  0  0  0  0  0  0  0  0  0  0  0
    0.4983    4.5516    0.0000 C   0  0  2  0  0  0  0  0  0  0  0  0
    1.0846    5.3617    0.0000 C   0  0  0  0  0  0  0  0  0  0  0  0
    0.6762    6.2745    0.0000 O   0  0  0  0  0  0  0  0  0  0  0  0
   -0.5017    4.5529    0.0000 C   0  0  1  0  0  0  0  0  0  0  0  0
   -1.0895    5.3618    0.0000 O   0  0  0  0  0  0  0  0  0  0  0  0
   -0.8098    3.5999    0.0000 C   0  0  1  0  0  0  0  0  0  0  0  0
   -1.7608    3.2907    0.0000 O   0  0  0  0  0  0  0  0  0  0  0  0
  1  2  1  0  0  0  0
  2  8  1  0  0  0  0
  2  3  2  0  0  0  0
  3  4  1  0  0  0  0
  4  5  2  0  0  0  0
  4  6  1  0  0  0  0
  6  7  1  0  0  0  0
  7  8  2  0  0  0  0
  9  6  1  1  0  0  0
  9 16  1  0  0  0  0
  9 10  1  0  0  0  0
 10 11  1  0  0  0  0
 11 12  1  1  0  0  0
 12 13  1  0  0  0  0
 11 14  1  0  0  0  0
 14 15  1  6  0  0  0
 14 16  1  0  0  0  0
 16 17  1  6  0  0  0
M  END
>  <Name>
Azacitidine

>  <CAS #>
320-67-2

>  <human Clearance (mL/min/kg)>
35.0

>  <Primary mechanism (metabolic, biliary or renal)>
metabolic

>  <seqId>
82.0

>  <Code (mechanism and clearance degree index)>
M1

>  < Five M1 and R1 test groups>
M1_1

>  <formamide>
0

>  <prodrug phosphates>
0

>  <VolSurf_V>
454.375

>  <VolSurf_S>
331.262

>  <VolSurf_R>
1.37165

>  <VolSurf_G>
1.24772

>  <VolSurf_IW1>
0.0520439

>  <VolSurf_IW2>
0.0802351

>  <VolSurf_IW3>
0.202362

>  <VolSurf_IW4>
0.511303

>  <VolSurf_ID1>
0.179178

>  <VolSurf_ID2>
0.273367

>  <VolSurf_ID3>
0.349589

>  <VolSurf_ID4>
0.431139

>  <VolSurf_HL1>
17.37

>  <VolSurf_HL2>
12.9459

>  <VolSurf_A>
3.65218

>  <VolSurf_CP>
0.0854515

>  <VolSurf_POL>
21.071

>  <VolSurf_MW>
244.205

>  <VolSurf_FLEX>
0.469729

>  <VolSurf_FLEX_RB>
0.0782881

>  <VolSurf_NCC>
0.0

>  <VolSurf_LOGP n-Oct>
-3.001

>  <VolSurf_LOGP c-Hex>
-7.641

>  <VolSurf_PSA>
144.58

>  <VolSurf_HSA>
186.682

>  <VolSurf_PSAR>
0.436452

>  <VolSurf_PHSAR>
0.774472

>  <VolSurf_LgD5>
-3.02106

>  <VolSurf_LgD6>
-3.00304

>  <VolSurf_LgD7>
-3.00121

>  <VolSurf_LgD7.5>
-3.00107

>  <VolSurf_LgD8>
-3.00104

>  <VolSurf_LgD9>
-3.00121

>  <VolSurf_LgD10>
-3.00305

>  <VolSurf_AUS7.4>
2.0

>  <VolSurf_%FU4>
66.9796

>  <VolSurf_%FU5>
95.4842

>  <VolSurf_%FU6>
99.5312

>  <VolSurf_%FU7>
99.9525

>  <VolSurf_%FU8>
99.9906

>  <VolSurf_%FU9>
99.9522

>  <VolSurf_%FU10>
99.5282

>  <ID>
45

>  <MOKAID>
46

>  <Clearance Route>
renal

>  <PC1>
-2.2627

>  <PC2>
4.5063699999999995

$$$$
Azelastine
  -OEChem-08301611272D

 27 30  0     1  0  0  0  0  0999 V2000
    7.4886    2.2517    0.0000 C   0  0  0  0  0  0  0  0  0  0  0  0
    6.4913    2.1781    0.0000 N   0  0  3  0  0  0  0  0  0  0  0  0
    5.9937    3.0455    0.0000 C   0  0  0  0  0  0  0  0  0  0  0  0
    4.9980    3.1959    0.0000 C   0  0  0  0  0  0  0  0  0  0  0  0
    4.2608    2.5109    0.0000 C   0  0  0  0  0  0  0  0  0  0  0  0
    4.3394    1.5081    0.0000 C   0  0  3  0  0  0  0  0  0  0  0  0
    5.1668    0.9405    0.0000 C   0  0  0  0  0  0  0  0  0  0  0  0
    6.1239    1.2405    0.0000 C   0  0  0  0  0  0  0  0  0  0  0  0
    3.4735    1.0079    0.0000 N   0  0  0  0  0  0  0  0  0  0  0  0
    3.4748    0.0022    0.0000 N   0  0  0  0  0  0  0  0  0  0  0  0
    2.6038   -0.4989    0.0000 C   0  0  0  0  0  0  0  0  0  0  0  0
    2.6037   -1.4989    0.0000 C   0  0  0  0  0  0  0  0  0  0  0  0
    3.4696   -1.9990    0.0000 C   0  0  0  0  0  0  0  0  0  0  0  0
    4.3387   -1.4939    0.0000 C   0  0  0  0  0  0  0  0  0  0  0  0
    5.2048   -1.9940    0.0000 C   0  0  0  0  0  0  0  0  0  0  0  0
    5.2105   -2.9940    0.0000 C   0  0  0  0  0  0  0  0  0  0  0  0
    6.0787   -3.4903    0.0000 Cl  0  0  0  0  0  0  0  0  0  0  0  0
    4.3414   -3.4991    0.0000 C   0  0  0  0  0  0  0  0  0  0  0  0
    3.4666   -3.0041    0.0000 C   0  0  0  0  0  0  0  0  0  0  0  0
    1.7371   -0.0000    0.0000 C   0  0  0  0  0  0  0  0  0  0  0  0
    0.8679   -0.4978    0.0000 C   0  0  0  0  0  0  0  0  0  0  0  0
    0.0000    0.0000    0.0000 C   0  0  0  0  0  0  0  0  0  0  0  0
   -0.0000    1.0057    0.0000 C   0  0  0  0  0  0  0  0  0  0  0  0
    0.8679    1.5135    0.0000 C   0  0  0  0  0  0  0  0  0  0  0  0
    1.7358    1.0057    0.0000 C   0  0  0  0  0  0  0  0  0  0  0  0
    2.6012    1.5124    0.0000 C   0  0  0  0  0  0  0  0  0  0  0  0
    2.5985    2.5124    0.0000 O   0  0  0  0  0  0  0  0  0  0  0  0
  1  2  1  0  0  0  0
  2  8  1  0  0  0  0
  2  3  1  0  0  0  0
  3  4  1  0  0  0  0
  4  5  1  0  0  0  0
  5  6  1  0  0  0  0
  6  7  1  0  0  0  0
  7  8  1  0  0  0  0
  6  9  1  0  0  0  0
  9 26  1  0  0  0  0
  9 10  1  0  0  0  0
 10 11  2  0  0  0  0
 11 12  1  0  0  0  0
 12 13  1  0  0  0  0
 13 19  2  0  0  0  0
 13 14  1  0  0  0  0
 14 15  2  0  0  0  0
 15 16  1  0  0  0  0
 16 17  1  0  0  0  0
 16 18  2  0  0  0  0
 18 19  1  0  0  0  0
 11 20  1  0  0  0  0
 20 25  2  0  0  0  0
 20 21  1  0  0  0  0
 21 22  2  0  0  0  0
 22 23  1  0  0  0  0
 23 24  2  0  0  0  0
 24 25  1  0  0  0  0
 25 26  1  0  0  0  0
 26 27  2  0  0  0  0
M  END
>  <Name>
Azelastine

>  <CAS #>
58581-89-8

>  <human Clearance (mL/min/kg)>
9.0

>  <Primary mechanism (metabolic, biliary or renal)>
metabolism

>  <seqId>
84.0

>  <Code (mechanism and clearance degree index)>
M1

>  < Five M1 and R1 test groups>
M1_2

>  <formamide>
0

>  <prodrug phosphates>
0

>  <VolSurf_V>
873.625

>  <VolSurf_S>
565.981

>  <VolSurf_R>
1.54356

>  <VolSurf_G>
1.44928

>  <VolSurf_IW1>
0.0470196

>  <VolSurf_IW2>
0.342294

>  <VolSurf_IW3>
0.884364

>  <VolSurf_IW4>
1.16506

>  <VolSurf_ID1>
0.0338425

>  <VolSurf_ID2>
0.0833265

>  <VolSurf_ID3>
0.107232

>  <VolSurf_ID4>
0.139905

>  <VolSurf_HL1>
0.501479

>  <VolSurf_HL2>
0.475124

>  <VolSurf_A>
7.08985

>  <VolSurf_CP>
2.70215

>  <VolSurf_POL>
44.304

>  <VolSurf_MW>
382.906

>  <VolSurf_FLEX>
1.34699

>  <VolSurf_FLEX_RB>
0.336748

>  <VolSurf_NCC>
1.0

>  <VolSurf_LOGP n-Oct>
3.831

>  <VolSurf_LOGP c-Hex>
4.464

>  <VolSurf_PSA>
44.12

>  <VolSurf_HSA>
521.861

>  <VolSurf_PSAR>
0.0779531

>  <VolSurf_PHSAR>
0.0845435

>  <VolSurf_LgD5>
0.764828

>  <VolSurf_LgD6>
1.15528

>  <VolSurf_LgD7>
1.99096

>  <VolSurf_LgD7.5>
2.46341

>  <VolSurf_LgD8>
2.92068

>  <VolSurf_LgD9>
3.5963

>  <VolSurf_LgD10>
3.80092

>  <VolSurf_AUS7.4>
0.610864

>  <VolSurf_%FU4>
0.00139339

>  <VolSurf_%FU5>
0.0139329

>  <VolSurf_%FU6>
0.139155

>  <VolSurf_%FU7>
1.37434

>  <VolSurf_%FU8>
12.2306

>  <VolSurf_%FU9>
58.22

>  <VolSurf_%FU10>
93.3043

>  <ID>
46

>  <MOKAID>
47

>  <Clearance Route>
metabolic

>  <PC1>
3.22045

>  <PC2>
-0.595082

$$$$
Azimilide
  -OEChem-08301611272D

 32 35  0     0  0  0  0  0  0999 V2000
    0.8674    2.5126    0.0000 C   0  0  0  0  0  0  0  0  0  0  0  0
    0.8674    1.5126    0.0000 N   0  0  0  0  0  0  0  0  0  0  0  0
    0.0000    1.0051    0.0000 C   0  0  0  0  0  0  0  0  0  0  0  0
    0.0000    0.0000    0.0000 C   0  0  0  0  0  0  0  0  0  0  0  0
    0.8674   -0.4976    0.0000 N   0  0  0  0  0  0  0  0  0  0  0  0
    0.8674   -1.4976    0.0000 C   0  0  0  0  0  0  0  0  0  0  0  0
    1.7334   -1.9976    0.0000 C   0  0  0  0  0  0  0  0  0  0  0  0
    1.7334   -2.9976    0.0000 C   0  0  0  0  0  0  0  0  0  0  0  0
    2.5995   -3.4976    0.0000 C   0  0  0  0  0  0  0  0  0  0  0  0
    2.5995   -4.4976    0.0000 N   0  0  0  0  0  0  0  0  0  0  0  0
    1.7913   -5.0871    0.0000 C   0  0  0  0  0  0  0  0  0  0  0  0
    0.8406   -4.7770    0.0000 O   0  0  0  0  0  0  0  0  0  0  0  0
    2.0964   -6.0394    0.0000 C   0  0  0  0  0  0  0  0  0  0  0  0
    3.0978   -6.0410    0.0000 N   0  0  0  0  0  0  0  0  0  0  0  0
    3.6834   -6.8515    0.0000 N   0  0  0  0  0  0  0  0  0  0  0  0
    4.6782   -6.7497    0.0000 C   0  0  0  0  0  0  0  0  0  0  0  0
    5.2638   -7.5603    0.0000 C   0  0  0  0  0  0  0  0  0  0  0  0
    4.9517   -8.5152    0.0000 O   0  0  0  0  0  0  0  0  0  0  0  0
    5.7625   -9.1014    0.0000 C   0  0  0  0  0  0  0  0  0  0  0  0
    6.5738   -8.5168    0.0000 C   0  0  0  0  0  0  0  0  0  0  0  0
    6.2655   -7.5639    0.0000 C   0  0  0  0  0  0  0  0  0  0  0  0
    5.7617  -10.1014    0.0000 C   0  0  0  0  0  0  0  0  0  0  0  0
    6.6333  -10.6021    0.0000 C   0  0  0  0  0  0  0  0  0  0  0  0
    6.6325  -11.6022    0.0000 C   0  0  0  0  0  0  0  0  0  0  0  0
    5.7690  -12.1065    0.0000 C   0  0  0  0  0  0  0  0  0  0  0  0
    5.7726  -13.1065    0.0000 Cl  0  0  0  0  0  0  0  0  0  0  0  0
    4.8974  -11.6058    0.0000 C   0  0  0  0  0  0  0  0  0  0  0  0
    4.8893  -10.6007    0.0000 C   0  0  0  0  0  0  0  0  0  0  0  0
    3.4109   -5.0895    0.0000 C   0  0  0  0  0  0  0  0  0  0  0  0
    4.3629   -4.7832    0.0000 O   0  0  0  0  0  0  0  0  0  0  0  0
    1.7348    0.0000    0.0000 C   0  0  0  0  0  0  0  0  0  0  0  0
    1.7348    1.0051    0.0000 C   0  0  0  0  0  0  0  0  0  0  0  0
  1  2  1  0  0  0  0
  2 32  1  0  0  0  0
  2  3  1  0  0  0  0
  3  4  1  0  0  0  0
  4  5  1  0  0  0  0
  5  6  1  0  0  0  0
  6  7  1  0  0  0  0
  7  8  1  0  0  0  0
  8  9  1  0  0  0  0
  9 10  1  0  0  0  0
 10 29  1  0  0  0  0
 10 11  1  0  0  0  0
 11 12  2  0  0  0  0
 11 13  1  0  0  0  0
 13 14  1  0  0  0  0
 14 15  1  0  0  0  0
 15 16  2  0  0  0  0
 16 17  1  0  0  0  0
 17 21  2  0  0  0  0
 17 18  1  0  0  0  0
 18 19  1  0  0  0  0
 19 20  2  0  0  0  0
 20 21  1  0  0  0  0
 19 22  1  0  0  0  0
 22 28  2  0  0  0  0
 22 23  1  0  0  0  0
 23 24  2  0  0  0  0
 24 25  1  0  0  0  0
 25 26  1  0  0  0  0
 25 27  2  0  0  0  0
 27 28  1  0  0  0  0
 14 29  1  0  0  0  0
 29 30  2  0  0  0  0
  5 31  1  0  0  0  0
 31 32  1  0  0  0  0
M  END
>  <Name>
Azimilide

>  <CAS #>
149908-53-2

>  <human Clearance (mL/min/kg)>
2.4

>  <Primary mechanism (metabolic, biliary or renal)>
metabolism

>  <seqId>
85.0

>  <Code (mechanism and clearance degree index)>
M1

>  < Five M1 and R1 test groups>
M1_4

>  <formamide>
0

>  <prodrug phosphates>
0

>  <VolSurf_V>
1035.5

>  <VolSurf_S>
717.724

>  <VolSurf_R>
1.44276

>  <VolSurf_G>
1.74606

>  <VolSurf_IW1>
0.0315431

>  <VolSurf_IW2>
0.128522

>  <VolSurf_IW3>
0.27251

>  <VolSurf_IW4>
0.363347

>  <VolSurf_ID1>
0.0577984

>  <VolSurf_ID2>
0.157016

>  <VolSurf_ID3>
0.198438

>  <VolSurf_ID4>
0.207518

>  <VolSurf_HL1>
1.22634

>  <VolSurf_HL2>
1.06032

>  <VolSurf_A>
6.72068

>  <VolSurf_CP>
0.651972

>  <VolSurf_POL>
49.228

>  <VolSurf_MW>
458.961

>  <VolSurf_FLEX>
3.0498

>  <VolSurf_FLEX_RB>
0.338866

>  <VolSurf_NCC>
1.0

>  <VolSurf_LOGP n-Oct>
3.481

>  <VolSurf_LOGP c-Hex>
1.912

>  <VolSurf_PSA>
80.58

>  <VolSurf_HSA>
637.144

>  <VolSurf_PSAR>
0.112272

>  <VolSurf_PHSAR>
0.126471

>  <VolSurf_LgD5>
0.387899

>  <VolSurf_LgD6>
0.904974

>  <VolSurf_LgD7>
1.78332

>  <VolSurf_LgD7.5>
2.25534

>  <VolSurf_LgD8>
2.70008

>  <VolSurf_LgD9>
3.30334

>  <VolSurf_LgD10>
3.45958

>  <VolSurf_AUS7.4>
0.734578

>  <VolSurf_%FU4>
8.3642E-4

>  <VolSurf_%FU5>
0.0173918

>  <VolSurf_%FU6>
0.194604

>  <VolSurf_%FU7>
1.9355

>  <VolSurf_%FU8>
16.5005

>  <VolSurf_%FU9>
66.402

>  <VolSurf_%FU10>
95.1839

>  <ID>
47

>  <MOKAID>
48

>  <Clearance Route>
possible billary

>  <PC1>
1.83118

>  <PC2>
-2.0632099999999998

$$$$
Azithromycin
  -OEChem-08301611272D

 52 54  0     1  0  0  0  0  0999 V2000
    3.5120    4.6559    0.0000 C   0  0  0  0  0  0  0  0  0  0  0  0
    2.6478    4.1527    0.0000 C   0  0  0  0  0  0  0  0  0  0  0  0
    2.6515    3.1527    0.0000 C   0  0  1  0  0  0  0  0  0  0  0  0
    1.8383    2.5592    0.0000 O   0  0  0  0  0  0  0  0  0  0  0  0
    1.0004    3.1171    0.0000 C   0  0  0  0  0  0  0  0  0  0  0  0
    0.9696    4.1166    0.0000 O   0  0  0  0  0  0  0  0  0  0  0  0
    0.2037    2.5126    0.0000 C   0  0  2  0  0  0  0  0  0  0  0  0
   -0.7493    2.8156    0.0000 C   0  0  0  0  0  0  0  0  0  0  0  0
    0.5052    1.5587    0.0000 C   0  0  1  0  0  0  0  0  0  0  0  0
   -0.4468    1.8649    0.0000 O   0  0  0  0  0  0  0  0  0  0  0  0
   -0.8156    3.5756    0.0000 C   0  0  1  0  0  0  0  0  0  0  0  0
   -1.7734    3.8807    0.0000 C   0  0  0  0  0  0  0  0  0  0  0  0
   -1.9842    4.8582    0.0000 C   0  0  1  0  0  0  0  0  0  0  0  0
   -2.5199    5.7026    0.0000 C   0  0  0  0  0  0  0  0  0  0  0  0
   -2.9095    4.4791    0.0000 O   0  0  0  0  0  0  0  0  0  0  0  0
   -3.7005    5.0909    0.0000 C   0  0  0  0  0  0  0  0  0  0  0  0
   -1.2469    5.5339    0.0000 C   0  0  1  0  0  0  0  0  0  0  0  0
   -1.4620    6.5105    0.0000 O   0  0  0  0  0  0  0  0  0  0  0  0
   -0.2891    5.2288    0.0000 C   0  0  2  0  0  0  0  0  0  0  0  0
    0.4481    5.9045    0.0000 C   0  0  0  0  0  0  0  0  0  0  0  0
   -0.0686    4.2482    0.0000 O   0  0  0  0  0  0  0  0  0  0  0  0
   -0.2965    0.9591    0.0000 C   0  0  2  0  0  0  0  0  0  0  0  0
   -1.2475    1.2684    0.0000 C   0  0  0  0  0  0  0  0  0  0  0  0
    0.0000    0.0000    0.0000 C   0  0  1  0  0  0  0  0  0  0  0  0
   -1.0643   -1.3892    0.0000 O   0  0  0  0  0  0  0  0  0  0  0  0
   -2.0558   -1.2594    0.0000 C   0  0  2  0  0  0  0  0  0  0  0  0
   -2.4384   -0.3300    0.0000 O   0  0  0  0  0  0  0  0  0  0  0  0
   -3.4362   -0.2084    0.0000 C   0  0  2  0  0  0  0  0  0  0  0  0
   -3.8250    0.7129    0.0000 C   0  0  0  0  0  0  0  0  0  0  0  0
   -4.0451   -1.0081    0.0000 C   0  0  0  0  0  0  0  0  0  0  0  0
   -3.6563   -1.9295    0.0000 C   0  0  1  0  0  0  0  0  0  0  0  0
   -2.6648   -2.0592    0.0000 C   0  0  1  0  0  0  0  0  0  0  0  0
   -2.2800   -2.9822    0.0000 O   0  0  0  0  0  0  0  0  0  0  0  0
   -4.2621   -2.7251    0.0000 N   0  0  0  0  0  0  0  0  0  0  0  0
   -3.8760   -3.6475    0.0000 C   0  0  0  0  0  0  0  0  0  0  0  0
   -5.2541   -2.5983    0.0000 C   0  0  0  0  0  0  0  0  0  0  0  0
    1.0030   -0.0366    0.0000 C   0  0  2  0  0  0  0  0  0  0  0  0
    0.4590   -1.6999    0.0000 C   0  0  0  0  0  0  0  0  0  0  0  0
   -0.4323   -1.0378    0.0000 O   0  0  0  0  0  0  0  0  0  0  0  0
    1.3326   -1.0005    0.0000 C   0  0  0  0  0  0  0  0  0  0  0  0
    2.3565   -0.9975    0.0000 C   0  0  1  0  0  0  0  0  0  0  0  0
    2.9392   -1.8102    0.0000 C   0  0  0  0  0  0  0  0  0  0  0  0
    2.6853   -0.0366    0.0000 C   0  0  0  0  0  0  0  0  0  0  0  0
    3.7188   -0.0005    0.0000 N   0  0  3  0  0  0  0  0  0  0  0  0
    4.3212   -0.7987    0.0000 C   0  0  0  0  0  0  0  0  0  0  0  0
    4.0313    0.9663    0.0000 C   0  0  2  0  0  0  0  0  0  0  0  0
    4.9832    1.2728    0.0000 C   0  0  0  0  0  0  0  0  0  0  0  0
    3.2087    1.5725    0.0000 C   0  0  1  0  0  0  0  0  0  0  0  0
    4.1567    1.8909    0.0000 O   0  0  0  0  0  0  0  0  0  0  0  0
    3.4966    2.5454    0.0000 C   0  0  1  0  0  0  0  0  0  0  0  0
    3.9859    3.4175    0.0000 C   0  0  0  0  0  0  0  0  0  0  0  0
    4.4179    2.1564    0.0000 O   0  0  0  0  0  0  0  0  0  0  0  0
  1  2  1  0  0  0  0
  3  2  1  6  0  0  0
  3 50  1  0  0  0  0
  3  4  1  0  0  0  0
  4  5  1  0  0  0  0
  5  6  2  0  0  0  0
  5  7  1  0  0  0  0
  7  8  1  1  0  0  0
  7  9  1  0  0  0  0
  9 10  1  1  0  0  0
 11 10  1  1  0  0  0
 11 21  1  0  0  0  0
 11 12  1  0  0  0  0
 12 13  1  0  0  0  0
 13 14  1  6  0  0  0
 13 15  1  0  0  0  0
 15 16  1  0  0  0  0
 13 17  1  0  0  0  0
 17 18  1  1  0  0  0
 17 19  1  0  0  0  0
 19 20  1  6  0  0  0
 19 21  1  0  0  0  0
  9 22  1  0  0  0  0
 22 23  1  1  0  0  0
 22 24  1  0  0  0  0
 24 25  1  6  0  0  0
 26 25  1  1  0  0  0
 26 32  1  0  0  0  0
 26 27  1  0  0  0  0
 27 28  1  0  0  0  0
 28 29  1  1  0  0  0
 28 30  1  0  0  0  0
 30 31  1  0  0  0  0
 31 32  1  0  0  0  0
 32 33  1  6  0  0  0
 31 34  1  1  0  0  0
 34 35  1  0  0  0  0
 34 36  1  0  0  0  0
 24 37  1  0  0  0  0
 37 38  1  0  0  0  0
 37 39  1  1  0  0  0
 37 40  1  0  0  0  0
 40 41  1  0  0  0  0
 41 42  1  6  0  0  0
 41 43  1  0  0  0  0
 43 44  1  0  0  0  0
 44 45  1  0  0  0  0
 44 46  1  0  0  0  0
 46 47  1  1  0  0  0
 46 48  1  0  0  0  0
 48 49  1  1  0  0  0
 48 50  1  0  0  0  0
 50 51  1  0  0  0  0
 50 52  1  1  0  0  0
M  END
>  <Name>
Azithromycin

>  <CAS #>
83905-01-5

>  <human Clearance (mL/min/kg)>
10.0

>  <Primary mechanism (metabolic, biliary or renal)>
biliary

>  <seqId>
86.0

>  <Code (mechanism and clearance degree index)>
B1

>  < Five M1 and R1 test groups>
32

>  <formamide>
0

>  <prodrug phosphates>
0

>  <VolSurf_V>
1504.5

>  <VolSurf_S>
872.549

>  <VolSurf_R>
1.72426

>  <VolSurf_G>
1.61089

>  <VolSurf_IW1>
0.00702668

>  <VolSurf_IW2>
0.0264891

>  <VolSurf_IW3>
0.055454

>  <VolSurf_IW4>
0.091857

>  <VolSurf_ID1>
0.0149018

>  <VolSurf_ID2>
0.0724026

>  <VolSurf_ID3>
0.124037

>  <VolSurf_ID4>
0.225932

>  <VolSurf_HL1>
8.42384

>  <VolSurf_HL2>
11.4211

>  <VolSurf_A>
4.58757

>  <VolSurf_CP>
0.129761

>  <VolSurf_POL>
81.8231

>  <VolSurf_MW>
751.0

>  <VolSurf_FLEX>
1.76578

>  <VolSurf_FLEX_RB>
0.0679146

>  <VolSurf_NCC>
2.0

>  <VolSurf_LOGP n-Oct>
2.167

>  <VolSurf_LOGP c-Hex>
-0.119

>  <VolSurf_PSA>
212.92

>  <VolSurf_HSA>
659.629

>  <VolSurf_PSAR>
0.244021

>  <VolSurf_PHSAR>
0.322787

>  <VolSurf_LgD5>
-3.83402

>  <VolSurf_LgD6>
-2.80491

>  <VolSurf_LgD7>
-0.928375

>  <VolSurf_LgD7.5>
0.0123688

>  <VolSurf_LgD8>
0.862114

>  <VolSurf_LgD9>
1.90133

>  <VolSurf_LgD10>
2.13606

>  <VolSurf_AUS7.4>
0.0626906

>  <VolSurf_%FU4>
8.34934E-8

>  <VolSurf_%FU5>
8.3448E-6

>  <VolSurf_%FU6>
8.29959E-4

>  <VolSurf_%FU7>
0.0786755

>  <VolSurf_%FU8>
4.94609

>  <VolSurf_%FU9>
54.2311

>  <VolSurf_%FU10>
93.1209

>  <ID>
48

>  <MOKAID>
49

>  <Clearance Route>
possible billary

>  <PC1>
-1.09596

>  <PC2>
-5.03021

$$$$
Azlocillin
  -OEChem-08301611272D

 33 36  0     1  0  0  0  0  0999 V2000
    3.2824    0.1689    0.0000 C   0  0  0  0  0  0  0  0  0  0  0  0
    2.5392   -0.5002    0.0000 C   0  0  0  0  0  0  0  0  0  0  0  0
    3.2822   -1.1694    0.0000 C   0  0  0  0  0  0  0  0  0  0  0  0
    1.9514    0.3089    0.0000 S   0  0  0  0  0  0  0  0  0  0  0  0
    1.0001    0.0000    0.0000 C   0  0  2  0  0  0  0  0  0  0  0  0
    0.0000    0.0000    0.0000 C   0  0  2  0  0  0  0  0  0  0  0  0
   -0.7071    0.7071    0.0000 N   0  0  0  0  0  0  0  0  0  0  0  0
   -1.6730    0.4483    0.0000 C   0  0  0  0  0  0  0  0  0  0  0  0
   -1.9319   -0.5176    0.0000 O   0  0  0  0  0  0  0  0  0  0  0  0
   -2.3801    1.1554    0.0000 C   0  0  2  0  0  0  0  0  0  0  0  0
   -3.3461    0.8966    0.0000 N   0  0  0  0  0  0  0  0  0  0  0  0
   -3.6049   -0.0693    0.0000 C   0  0  0  0  0  0  0  0  0  0  0  0
   -2.8978   -0.7765    0.0000 O   0  0  0  0  0  0  0  0  0  0  0  0
   -4.5708   -0.3282    0.0000 N   0  0  0  0  0  0  0  0  0  0  0  0
   -5.3493    0.2998    0.0000 C   0  0  0  0  0  0  0  0  0  0  0  0
   -6.1903   -0.2413    0.0000 C   0  0  0  0  0  0  0  0  0  0  0  0
   -5.9326   -1.2090    0.0000 N   0  0  0  0  0  0  0  0  0  0  0  0
   -4.9326   -1.2652    0.0000 C   0  0  0  0  0  0  0  0  0  0  0  0
   -4.3903   -2.1054    0.0000 O   0  0  0  0  0  0  0  0  0  0  0  0
   -2.1213    2.1213    0.0000 C   0  0  0  0  0  0  0  0  0  0  0  0
   -2.8342    2.8300    0.0000 C   0  0  0  0  0  0  0  0  0  0  0  0
   -2.5754    3.7960    0.0000 C   0  0  0  0  0  0  0  0  0  0  0  0
   -1.6110    4.0604    0.0000 C   0  0  0  0  0  0  0  0  0  0  0  0
   -0.8981    3.3518    0.0000 C   0  0  0  0  0  0  0  0  0  0  0  0
   -1.1497    2.3786    0.0000 C   0  0  0  0  0  0  0  0  0  0  0  0
   -0.0000   -1.0001    0.0000 C   0  0  0  0  0  0  0  0  0  0  0  0
   -0.7071   -1.7072    0.0000 O   0  0  0  0  0  0  0  0  0  0  0  0
    1.0000   -1.0001    0.0000 N   0  0  0  0  0  0  0  0  0  0  0  0
    1.9511   -1.3093    0.0000 C   0  0  1  0  0  0  0  0  0  0  0  0
    2.2599   -2.2604    0.0000 C   0  0  0  0  0  0  0  0  0  0  0  0
    1.5907   -3.0034    0.0000 O   0  0  0  0  0  0  0  0  0  0  0  0
    3.2381   -2.4685    0.0000 O   0  0  0  0  0  0  0  0  0  0  0  0
    0.8438    0.9877    0.0000 H   0  0  0  0  0  0  0  0  0  0  0  0
  1  2  1  0  0  0  0
  2 29  1  0  0  0  0
  2  3  1  0  0  0  0
  2  4  1  0  0  0  0
  4  5  1  0  0  0  0
  5 28  1  0  0  0  0
  5  6  1  0  0  0  0
  6  7  1  1  0  0  0
  7  8  1  0  0  0  0
  8  9  2  0  0  0  0
 10  8  1  6  0  0  0
 10 11  1  0  0  0  0
 11 12  1  0  0  0  0
 12 13  2  0  0  0  0
 12 14  1  0  0  0  0
 14 18  1  0  0  0  0
 14 15  1  0  0  0  0
 15 16  1  0  0  0  0
 16 17  1  0  0  0  0
 17 18  1  0  0  0  0
 18 19  2  0  0  0  0
 10 20  1  0  0  0  0
 20 25  2  0  0  0  0
 20 21  1  0  0  0  0
 21 22  2  0  0  0  0
 22 23  1  0  0  0  0
 23 24  2  0  0  0  0
 24 25  1  0  0  0  0
  6 26  1  0  0  0  0
 26 27  2  0  0  0  0
 26 28  1  0  0  0  0
 28 29  1  0  0  0  0
 29 30  1  6  0  0  0
 30 31  2  0  0  0  0
 30 32  1  0  0  0  0
  5 33  1  6  0  0  0
M  END
>  <Name>
Azlocillin

>  <CAS #>
37091-66-0

>  <human Clearance (mL/min/kg)>
2.5

>  <Primary mechanism (metabolic, biliary or renal)>
renal

>  <seqId>
87.0

>  <Code (mechanism and clearance degree index)>
R1

>  < Five M1 and R1 test groups>
R1_2

>  <formamide>
0

>  <prodrug phosphates>
0

>  <VolSurf_V>
910.0

>  <VolSurf_S>
611.921

>  <VolSurf_R>
1.48712

>  <VolSurf_G>
1.56414

>  <VolSurf_IW1>
0.0798684

>  <VolSurf_IW2>
0.187201

>  <VolSurf_IW3>
0.395616

>  <VolSurf_IW4>
0.560513

>  <VolSurf_ID1>
0.0629203

>  <VolSurf_ID2>
0.177418

>  <VolSurf_ID3>
0.295334

>  <VolSurf_ID4>
0.347341

>  <VolSurf_HL1>
8.23645

>  <VolSurf_HL2>
8.99083

>  <VolSurf_A>
6.89498

>  <VolSurf_CP>
0.119542

>  <VolSurf_POL>
43.183

>  <VolSurf_MW>
460.484

>  <VolSurf_FLEX>
2.33822

>  <VolSurf_FLEX_RB>
0.259803

>  <VolSurf_NCC>
1.0

>  <VolSurf_LOGP n-Oct>
0.84

>  <VolSurf_LOGP c-Hex>
-5.741

>  <VolSurf_PSA>
168.28

>  <VolSurf_HSA>
443.641

>  <VolSurf_PSAR>
0.275003

>  <VolSurf_PHSAR>
0.379315

>  <VolSurf_LgD5>
-1.37028

>  <VolSurf_LgD6>
-2.14933

>  <VolSurf_LgD7>
-2.45392

>  <VolSurf_LgD7.5>
-2.48885

>  <VolSurf_LgD8>
-2.5005

>  <VolSurf_LgD9>
-2.50547

>  <VolSurf_LgD10>
-2.50613

>  <VolSurf_AUS7.4>
0.0

>  <VolSurf_%FU4>
5.43424

>  <VolSurf_%FU5>
0.571368

>  <VolSurf_%FU6>
0.0574322

>  <VolSurf_%FU7>
0.00574618

>  <VolSurf_%FU8>
5.74646E-4

>  <VolSurf_%FU9>
5.74626E-5

>  <VolSurf_%FU10>
5.74396E-6

>  <ID>
49

>  <MOKAID>
50

>  <Clearance Route>
renal

>  <PC1>
-2.87764

>  <PC2>
-0.370057

$$$$
Aztreonam
  -OEChem-08301611272D

 28 29  0     1  0  0  0  0  0999 V2000
   -4.0502   -3.0274    0.0000 C   0  0  0  0  0  0  0  0  0  0  0  0
   -3.9444   -2.0330    0.0000 C   0  0  1  0  0  0  0  0  0  0  0  0
   -3.1665   -1.4048    0.0000 C   0  0  2  0  0  0  0  0  0  0  0  0
   -2.1721   -1.5106    0.0000 N   0  0  0  0  0  0  0  0  0  0  0  0
   -1.5832   -0.7024    0.0000 C   0  0  0  0  0  0  0  0  0  0  0  0
   -1.9888    0.2117    0.0000 O   0  0  0  0  0  0  0  0  0  0  0  0
   -0.5889   -0.8082    0.0000 C   0  0  0  0  0  0  0  0  0  0  0  0
   -0.1833   -1.7223    0.0000 N   0  0  0  0  0  0  0  0  0  0  0  0
   -0.7722   -2.5306    0.0000 O   0  0  0  0  0  0  0  0  0  0  0  0
   -0.3667   -3.4446    0.0000 C   0  0  0  0  0  0  0  0  0  0  0  0
   -1.2808   -3.8502    0.0000 C   0  0  0  0  0  0  0  0  0  0  0  0
    0.5474   -3.0391    0.0000 C   0  0  0  0  0  0  0  0  0  0  0  0
    0.0389   -4.3587    0.0000 C   0  0  0  0  0  0  0  0  0  0  0  0
    1.0332   -4.4646    0.0000 O   0  0  0  0  0  0  0  0  0  0  0  0
   -0.5500   -5.1670    0.0000 O   0  0  0  0  0  0  0  0  0  0  0  0
    0.0000    0.0000    0.0000 C   0  0  0  0  0  0  0  0  0  0  0  0
   -0.3065    0.9519    0.0000 C   0  0  0  0  0  0  0  0  0  0  0  0
    0.5007    1.5426    0.0000 S   0  0  0  0  0  0  0  0  0  0  0  0
    1.3131    0.9519    0.0000 C   0  0  0  0  0  0  0  0  0  0  0  0
    2.2646    1.2597    0.0000 N   0  0  0  0  0  0  0  0  0  0  0  0
    1.0014    0.0000    0.0000 N   0  0  0  0  0  0  0  0  0  0  0  0
   -3.7947   -0.6269    0.0000 C   0  0  0  0  0  0  0  0  0  0  0  0
   -3.6889    0.3675    0.0000 O   0  0  0  0  0  0  0  0  0  0  0  0
   -4.5726   -1.2551    0.0000 N   0  0  0  0  0  0  0  0  0  0  0  0
   -5.5670   -1.1492    0.0000 S   0  0  0  0  0  0  0  0  0  0  0  0
   -5.6729   -2.1436    0.0000 O   0  0  0  0  0  0  0  0  0  0  0  0
   -5.4612   -0.1549    0.0000 O   0  0  0  0  0  0  0  0  0  0  0  0
   -6.5614   -1.0434    0.0000 O   0  0  0  0  0  0  0  0  0  0  0  0
  2  1  1  6  0  0  0
  2 24  1  0  0  0  0
  2  3  1  0  0  0  0
  3  4  1  1  0  0  0
  4  5  1  0  0  0  0
  5  6  2  0  0  0  0
  5  7  1  0  0  0  0
  7  8  2  0  0  0  0
  8  9  1  0  0  0  0
  9 10  1  0  0  0  0
 10 11  1  0  0  0  0
 10 12  1  0  0  0  0
 10 13  1  0  0  0  0
 13 14  2  0  0  0  0
 13 15  1  0  0  0  0
  7 16  1  0  0  0  0
 16 21  1  0  0  0  0
 16 17  2  0  0  0  0
 17 18  1  0  0  0  0
 18 19  1  0  0  0  0
 19 20  1  0  0  0  0
 19 21  2  0  0  0  0
  3 22  1  0  0  0  0
 22 23  2  0  0  0  0
 22 24  1  0  0  0  0
 24 25  1  0  0  0  0
 25 26  2  0  0  0  0
 25 27  2  0  0  0  0
 25 28  1  0  0  0  0
M  END
>  <Name>
Aztreonam

>  <CAS #>
78110-38-0

>  <human Clearance (mL/min/kg)>
1.5

>  <Primary mechanism (metabolic, biliary or renal)>
renal

>  <seqId>
88.0

>  <Code (mechanism and clearance degree index)>
R1

>  < Five M1 and R1 test groups>
R1_5

>  <formamide>
0

>  <prodrug phosphates>
0

>  <VolSurf_V>
788.875

>  <VolSurf_S>
534.123

>  <VolSurf_R>
1.47695

>  <VolSurf_G>
1.47139

>  <VolSurf_IW1>
0.0152969

>  <VolSurf_IW2>
0.0344611

>  <VolSurf_IW3>
0.0727821

>  <VolSurf_IW4>
0.25152

>  <VolSurf_ID1>
0.0346893

>  <VolSurf_ID2>
0.140453

>  <VolSurf_ID3>
0.200034

>  <VolSurf_ID4>
0.265436

>  <VolSurf_HL1>
12.7292

>  <VolSurf_HL2>
9.82222

>  <VolSurf_A>
3.74882

>  <VolSurf_CP>
0.115298

>  <VolSurf_POL>
36.755

>  <VolSurf_MW>
433.417

>  <VolSurf_FLEX>
2.34305

>  <VolSurf_FLEX_RB>
0.213005

>  <VolSurf_NCC>
2.0

>  <VolSurf_LOGP n-Oct>
-0.95

>  <VolSurf_LOGP c-Hex>
-8.446

>  <VolSurf_PSA>
229.37

>  <VolSurf_HSA>
304.753

>  <VolSurf_PSAR>
0.429433

>  <VolSurf_PHSAR>
0.752642

>  <VolSurf_LgD5>
-6.15612

>  <VolSurf_LgD6>
-6.20031

>  <VolSurf_LgD7>
-6.20008

>  <VolSurf_LgD7.5>
-6.20003

>  <VolSurf_LgD8>
-6.20001

>  <VolSurf_LgD9>
-6.2

>  <VolSurf_LgD10>
-6.20003

>  <VolSurf_AUS7.4>
0.0

>  <VolSurf_%FU4>
0.0

>  <VolSurf_%FU5>
0.0

>  <VolSurf_%FU6>
0.0

>  <VolSurf_%FU7>
0.0

>  <VolSurf_%FU8>
0.0

>  <VolSurf_%FU9>
0.0

>  <VolSurf_%FU10>
0.0

>  <ID>
50

>  <MOKAID>
51

>  <Clearance Route>
renal

>  <PC1>
-6.3264

>  <PC2>
0.043148

$$$$
Bambuterol
  -OEChem-08301611272D

 26 26  0     1  0  0  0  0  0999 V2000
   -4.3316    1.4925    0.0000 C   0  0  0  0  0  0  0  0  0  0  0  0
   -3.4670    1.9950    0.0000 N   0  0  0  0  0  0  0  0  0  0  0  0
   -3.4700    2.9950    0.0000 C   0  0  0  0  0  0  0  0  0  0  0  0
   -2.5995    1.4976    0.0000 C   0  0  0  0  0  0  0  0  0  0  0  0
   -2.5966    0.4976    0.0000 O   0  0  0  0  0  0  0  0  0  0  0  0
   -1.7350    2.0001    0.0000 O   0  0  0  0  0  0  0  0  0  0  0  0
   -0.8675    1.5027    0.0000 C   0  0  0  0  0  0  0  0  0  0  0  0
   -0.8675    0.4975    0.0000 C   0  0  0  0  0  0  0  0  0  0  0  0
    0.0000    0.0000    0.0000 C   0  0  0  0  0  0  0  0  0  0  0  0
    0.0000   -1.0000    0.0000 O   0  0  0  0  0  0  0  0  0  0  0  0
    0.8660   -1.5000    0.0000 C   0  0  0  0  0  0  0  0  0  0  0  0
    1.7321   -1.0000    0.0000 O   0  0  0  0  0  0  0  0  0  0  0  0
    0.8660   -2.5000    0.0000 N   0  0  0  0  0  0  0  0  0  0  0  0
    1.7321   -3.0000    0.0000 C   0  0  0  0  0  0  0  0  0  0  0  0
    0.0000   -3.0000    0.0000 C   0  0  0  0  0  0  0  0  0  0  0  0
    0.8675    0.4975    0.0000 C   0  0  0  0  0  0  0  0  0  0  0  0
    0.8675    1.5027    0.0000 C   0  0  0  0  0  0  0  0  0  0  0  0
   -0.0000    2.0104    0.0000 C   0  0  0  0  0  0  0  0  0  0  0  0
    1.7350    2.0001    0.0000 C   0  0  3  0  0  0  0  0  0  0  0  0
    2.5995    1.4976    0.0000 O   0  0  0  0  0  0  0  0  0  0  0  0
    1.7379    3.0001    0.0000 C   0  0  0  0  0  0  0  0  0  0  0  0
    2.6054    3.4976    0.0000 N   0  0  0  0  0  0  0  0  0  0  0  0
    2.6084    4.4976    0.0000 C   0  0  0  0  0  0  0  0  0  0  0  0
    1.6084    4.5005    0.0000 C   0  0  0  0  0  0  0  0  0  0  0  0
    3.6084    4.4946    0.0000 C   0  0  0  0  0  0  0  0  0  0  0  0
    2.6113    5.4976    0.0000 C   0  0  0  0  0  0  0  0  0  0  0  0
  1  2  1  0  0  0  0
  2  3  1  0  0  0  0
  2  4  1  0  0  0  0
  4  5  2  0  0  0  0
  4  6  1  0  0  0  0
  6  7  1  0  0  0  0
  7 18  2  0  0  0  0
  7  8  1  0  0  0  0
  8  9  2  0  0  0  0
  9 10  1  0  0  0  0
 10 11  1  0  0  0  0
 11 12  2  0  0  0  0
 11 13  1  0  0  0  0
 13 14  1  0  0  0  0
 13 15  1  0  0  0  0
  9 16  1  0  0  0  0
 16 17  2  0  0  0  0
 17 18  1  0  0  0  0
 17 19  1  0  0  0  0
 19 20  1  0  0  0  0
 19 21  1  0  0  0  0
 21 22  1  0  0  0  0
 22 23  1  0  0  0  0
 23 24  1  0  0  0  0
 23 25  1  0  0  0  0
 23 26  1  0  0  0  0
M  END
>  <Name>
Bambuterol

>  <CAS #>
81732-65-2

>  <human Clearance (mL/min/kg)>
18.0

>  <Primary mechanism (metabolic, biliary or renal)>
metabolic

>  <seqId>
89.0

>  <Code (mechanism and clearance degree index)>
M1

>  < Five M1 and R1 test groups>
M1_5

>  <formamide>
0

>  <prodrug phosphates>
0

>  <VolSurf_V>
877.625

>  <VolSurf_S>
627.002

>  <VolSurf_R>
1.39972

>  <VolSurf_G>
1.68216

>  <VolSurf_IW1>
0.0467222

>  <VolSurf_IW2>
0.119495

>  <VolSurf_IW3>
0.290008

>  <VolSurf_IW4>
0.37461

>  <VolSurf_ID1>
0.0111437

>  <VolSurf_ID2>
0.0587738

>  <VolSurf_ID3>
0.0837154

>  <VolSurf_ID4>
0.0

>  <VolSurf_HL1>
5.79444

>  <VolSurf_HL2>
8.9

>  <VolSurf_A>
2.98244

>  <VolSurf_CP>
0.359295

>  <VolSurf_POL>
41.183

>  <VolSurf_MW>
368.448

>  <VolSurf_FLEX>
2.29207

>  <VolSurf_FLEX_RB>
0.127337

>  <VolSurf_NCC>
1.0

>  <VolSurf_LOGP n-Oct>
1.287

>  <VolSurf_LOGP c-Hex>
-0.469

>  <VolSurf_PSA>
102.43

>  <VolSurf_HSA>
524.572

>  <VolSurf_PSAR>
0.163365

>  <VolSurf_PHSAR>
0.195264

>  <VolSurf_LgD5>
-2.07844

>  <VolSurf_LgD6>
-1.54757

>  <VolSurf_LgD7>
-0.645822

>  <VolSurf_LgD7.5>
-0.164388

>  <VolSurf_LgD8>
0.301304

>  <VolSurf_LgD9>
1.01521

>  <VolSurf_LgD10>
1.25069

>  <VolSurf_AUS7.4>
0.544735

>  <VolSurf_%FU4>
0.00114906

>  <VolSurf_%FU5>
0.0114895

>  <VolSurf_%FU6>
0.114776

>  <VolSurf_%FU7>
1.13602

>  <VolSurf_%FU8>
10.3065

>  <VolSurf_%FU9>
53.4678

>  <VolSurf_%FU10>
91.977

>  <ID>
51

>  <MOKAID>
52

>  <Clearance Route>
possible billary

>  <PC1>
-0.112567

>  <PC2>
-1.4816200000000002

$$$$
Beclomethasone dipropionate
  -OEChem-08301611272D

 38 41  0     1  0  0  0  0  0999 V2000
    1.1730    6.4840    0.0000 C   0  0  0  0  0  0  0  0  0  0  0  0
    2.1574    6.6598    0.0000 C   0  0  0  0  0  0  0  0  0  0  0  0
    2.8019    5.8952    0.0000 C   0  0  0  0  0  0  0  0  0  0  0  0
    2.4619    4.9548    0.0000 O   0  0  0  0  0  0  0  0  0  0  0  0
    3.7863    6.0710    0.0000 O   0  0  0  0  0  0  0  0  0  0  0  0
    4.4308    5.3064    0.0000 C   0  0  0  0  0  0  0  0  0  0  0  0
    4.0908    4.3660    0.0000 C   0  0  0  0  0  0  0  0  0  0  0  0
    3.1064    4.1901    0.0000 O   0  0  0  0  0  0  0  0  0  0  0  0
    5.2187    3.0279    0.0000 C   0  0  1  0  0  0  0  0  0  0  0  0
    6.3461    4.3663    0.0000 O   0  0  0  0  0  0  0  0  0  0  0  0
    7.3306    4.1908    0.0000 C   0  0  0  0  0  0  0  0  0  0  0  0
    7.6708    3.2505    0.0000 O   0  0  0  0  0  0  0  0  0  0  0  0
    7.9748    4.9556    0.0000 C   0  0  0  0  0  0  0  0  0  0  0  0
    8.9593    4.7801    0.0000 C   0  0  0  0  0  0  0  0  0  0  0  0
    6.0928    2.5162    0.0000 C   0  0  1  0  0  0  0  0  0  0  0  0
    6.9606    3.0130    0.0000 C   0  0  0  0  0  0  0  0  0  0  0  0
    6.0915    1.5061    0.0000 C   0  0  0  0  0  0  0  0  0  0  0  0
    4.3477    1.5084    0.0000 C   0  0  1  0  0  0  0  0  0  0  0  0
    3.4759    1.0071    0.0000 C   0  0  2  0  0  0  0  0  0  0  0  0
    3.4748    0.0023    0.0000 C   0  0  0  0  0  0  0  0  0  0  0  0
    2.6037   -0.4989    0.0000 C   0  0  0  0  0  0  0  0  0  0  0  0
    1.7371    0.0000    0.0000 C   0  0  0  0  0  0  0  0  0  0  0  0
    0.8679   -0.4977    0.0000 C   0  0  0  0  0  0  0  0  0  0  0  0
    0.0000    0.0000    0.0000 C   0  0  0  0  0  0  0  0  0  0  0  0
   -0.8653   -0.5013    0.0000 O   0  0  0  0  0  0  0  0  0  0  0  0
    0.0000    1.0056    0.0000 C   0  0  0  0  0  0  0  0  0  0  0  0
    0.8679    1.5135    0.0000 C   0  0  0  0  0  0  0  0  0  0  0  0
    1.7358    1.0056    0.0000 C   0  0  1  0  0  0  0  0  0  0  0  0
    1.7357    2.0056    0.0000 C   0  0  0  0  0  0  0  0  0  0  0  0
    2.6012    1.5123    0.0000 C   0  0  2  0  0  0  0  0  0  0  0  0
    2.6042    0.5123    0.0000 Cl  0  0  0  0  0  0  0  0  0  0  0  0
    2.5967    2.5196    0.0000 C   0  0  1  0  0  0  0  0  0  0  0  0
    1.7301    3.0186    0.0000 O   0  0  0  0  0  0  0  0  0  0  0  0
    3.4743    3.0237    0.0000 C   0  0  0  0  0  0  0  0  0  0  0  0
    4.3490    2.5184    0.0000 C   0  0  2  0  0  0  0  0  0  0  0  0
    5.2163    2.0206    0.0000 C   0  0  0  0  0  0  0  0  0  0  0  0
    4.6050    0.5421    0.0000 H   0  0  0  0  0  0  0  0  0  0  0  0
    4.3412    0.5059    0.0000 H   0  0  0  0  0  0  0  0  0  0  0  0
  1  2  1  0  0  0  0
  2  3  1  0  0  0  0
  3  4  2  0  0  0  0
  3  5  1  0  0  0  0
  5  6  1  0  0  0  0
  6  7  1  0  0  0  0
  7  8  2  0  0  0  0
  9  7  1  1  0  0  0
  9 35  1  0  0  0  0
  9 10  1  0  0  0  0
 10 11  1  0  0  0  0
 11 12  2  0  0  0  0
 11 13  1  0  0  0  0
 13 14  1  0  0  0  0
  9 15  1  0  0  0  0
 15 16  1  1  0  0  0
 15 17  1  0  0  0  0
 17 18  1  0  0  0  0
 18 35  1  0  0  0  0
 18 19  1  0  0  0  0
 19 30  1  0  0  0  0
 19 20  1  0  0  0  0
 20 21  1  0  0  0  0
 21 22  1  0  0  0  0
 22 28  1  0  0  0  0
 22 23  2  0  0  0  0
 23 24  1  0  0  0  0
 24 25  2  0  0  0  0
 24 26  1  0  0  0  0
 26 27  2  0  0  0  0
 27 28  1  0  0  0  0
 28 29  1  1  0  0  0
 28 30  1  0  0  0  0
 30 31  1  6  0  0  0
 30 32  1  0  0  0  0
 32 33  1  1  0  0  0
 32 34  1  0  0  0  0
 34 35  1  0  0  0  0
 35 36  1  1  0  0  0
 18 37  1  6  0  0  0
 19 38  1  1  0  0  0
M  END
>  <Name>
Beclomethasone dipropionate

>  <CAS #>
5534-09-8

>  <human Clearance (mL/min/kg)>
36.0

>  <Primary mechanism (metabolic, biliary or renal)>
metabolic

>  <seqId>
92.0

>  <Code (mechanism and clearance degree index)>
M1

>  < Five M1 and R1 test groups>
M1_2

>  <formamide>
0

>  <prodrug phosphates>
0

>  <VolSurf_V>
1038.88

>  <VolSurf_S>
652.569

>  <VolSurf_R>
1.59198

>  <VolSurf_G>
1.50886

>  <VolSurf_IW1>
0.018883

>  <VolSurf_IW2>
0.0649532

>  <VolSurf_IW3>
0.145013

>  <VolSurf_IW4>
0.303067

>  <VolSurf_ID1>
0.0295579

>  <VolSurf_ID2>
0.112192

>  <VolSurf_ID3>
0.183523

>  <VolSurf_ID4>
0.19469

>  <VolSurf_HL1>
4.87402

>  <VolSurf_HL2>
5.40625

>  <VolSurf_A>
4.96537

>  <VolSurf_CP>
0.227197

>  <VolSurf_POL>
52.275

>  <VolSurf_MW>
521.042

>  <VolSurf_FLEX>
1.49343

>  <VolSurf_FLEX_RB>
0.106674

>  <VolSurf_NCC>
0.0

>  <VolSurf_LOGP n-Oct>
4.008

>  <VolSurf_LOGP c-Hex>
5.161

>  <VolSurf_PSA>
106.97

>  <VolSurf_HSA>
545.599

>  <VolSurf_PSAR>
0.163921

>  <VolSurf_PHSAR>
0.19606

>  <VolSurf_LgD5>
4.008

>  <VolSurf_LgD6>
4.008

>  <VolSurf_LgD7>
4.008

>  <VolSurf_LgD7.5>
4.00799

>  <VolSurf_LgD8>
4.00798

>  <VolSurf_LgD9>
4.00776

>  <VolSurf_LgD10>
4.00564

>  <VolSurf_AUS7.4>
2.0

>  <VolSurf_%FU4>
100.0

>  <VolSurf_%FU5>
100.0

>  <VolSurf_%FU6>
99.9999

>  <VolSurf_%FU7>
99.9995

>  <VolSurf_%FU8>
99.9946

>  <VolSurf_%FU9>
99.9456

>  <VolSurf_%FU10>
99.4584

>  <ID>
52

>  <MOKAID>
53

>  <Clearance Route>
metabolic

>  <PC1>
4.53545

>  <PC2>
-2.60165

$$$$
Belinostat
  -OEChem-08301611272D

 22 23  0     0  0  0  0  0  0999 V2000
    0.8675    1.5129    0.0000 C   0  0  0  0  0  0  0  0  0  0  0  0
    0.0000    1.0052    0.0000 C   0  0  0  0  0  0  0  0  0  0  0  0
    0.0000    0.0000    0.0000 C   0  0  0  0  0  0  0  0  0  0  0  0
    0.8675   -0.4975    0.0000 C   0  0  0  0  0  0  0  0  0  0  0  0
    1.7350    0.0000    0.0000 C   0  0  0  0  0  0  0  0  0  0  0  0
    1.7350    1.0052    0.0000 C   0  0  0  0  0  0  0  0  0  0  0  0
    2.6025    1.5026    0.0000 C   0  0  0  0  0  0  0  0  0  0  0  0
    2.6054    2.5026    0.0000 C   0  0  0  0  0  0  0  0  0  0  0  0
    3.4729    3.0001    0.0000 C   0  0  0  0  0  0  0  0  0  0  0  0
    3.4759    4.0001    0.0000 N   0  0  0  0  0  0  0  0  0  0  0  0
    4.3434    4.4975    0.0000 O   0  0  0  0  0  0  0  0  0  0  0  0
    4.3375    2.4975    0.0000 O   0  0  0  0  0  0  0  0  0  0  0  0
   -0.8675    1.5026    0.0000 S   0  0  0  0  0  0  0  0  0  0  0  0
   -1.3649    0.6351    0.0000 O   0  0  0  0  0  0  0  0  0  0  0  0
   -0.3701    2.3701    0.0000 O   0  0  0  0  0  0  0  0  0  0  0  0
   -1.7350    2.0001    0.0000 N   0  0  0  0  0  0  0  0  0  0  0  0
   -2.5995    1.4975    0.0000 C   0  0  0  0  0  0  0  0  0  0  0  0
   -2.5936    0.4924    0.0000 C   0  0  0  0  0  0  0  0  0  0  0  0
   -3.4582   -0.0103    0.0000 C   0  0  0  0  0  0  0  0  0  0  0  0
   -4.3286    0.4821    0.0000 C   0  0  0  0  0  0  0  0  0  0  0  0
   -4.3345    1.4873    0.0000 C   0  0  0  0  0  0  0  0  0  0  0  0
   -3.4700    2.0001    0.0000 C   0  0  0  0  0  0  0  0  0  0  0  0
  1  6  2  0  0  0  0
  1  2  1  0  0  0  0
  2  3  2  0  0  0  0
  3  4  1  0  0  0  0
  4  5  2  0  0  0  0
  5  6  1  0  0  0  0
  6  7  1  0  0  0  0
  7  8  2  0  0  0  0
  8  9  1  0  0  0  0
  9 10  1  0  0  0  0
 10 11  1  0  0  0  0
  9 12  2  0  0  0  0
  2 13  1  0  0  0  0
 13 14  2  0  0  0  0
 13 15  2  0  0  0  0
 13 16  1  0  0  0  0
 16 17  1  0  0  0  0
 17 22  2  0  0  0  0
 17 18  1  0  0  0  0
 18 19  2  0  0  0  0
 19 20  1  0  0  0  0
 20 21  2  0  0  0  0
 21 22  1  0  0  0  0
M  END
>  <Name>
Belinostat

>  <CAS #>
414864-00-9

>  <human Clearance (mL/min/kg)>
23.6

>  <Primary mechanism (metabolic, biliary or renal)>
metabolic

>  <seqId>
93.0

>  <Code (mechanism and clearance degree index)>
M1

>  < Five M1 and R1 test groups>
M1_3

>  <formamide>
0

>  <prodrug phosphates>
0

>  <VolSurf_V>
679.75

>  <VolSurf_S>
474.55

>  <VolSurf_R>
1.43241

>  <VolSurf_G>
1.43004

>  <VolSurf_IW1>
0.143245

>  <VolSurf_IW2>
0.336746

>  <VolSurf_IW3>
0.781958

>  <VolSurf_IW4>
1.87661

>  <VolSurf_ID1>
0.0886379

>  <VolSurf_ID2>
0.102531

>  <VolSurf_ID3>
0.156255

>  <VolSurf_ID4>
0.350722

>  <VolSurf_HL1>
3.10638

>  <VolSurf_HL2>
1.8254

>  <VolSurf_A>
6.20608

>  <VolSurf_CP>
0.611228

>  <VolSurf_POL>
33.067

>  <VolSurf_MW>
318.348

>  <VolSurf_FLEX>
1.85938

>  <VolSurf_FLEX_RB>
0.309896

>  <VolSurf_NCC>
0.0

>  <VolSurf_LOGP n-Oct>
1.493

>  <VolSurf_LOGP c-Hex>
-3.592

>  <VolSurf_PSA>
103.522

>  <VolSurf_HSA>
371.027

>  <VolSurf_PSAR>
0.218149

>  <VolSurf_PHSAR>
0.279016

>  <VolSurf_LgD5>
1.49246

>  <VolSurf_LgD6>
1.48765

>  <VolSurf_LgD7>
1.44223

>  <VolSurf_LgD7.5>
1.34901

>  <VolSurf_LgD8>
1.14027

>  <VolSurf_LgD9>
0.323086

>  <VolSurf_LgD10>
-0.921945

>  <VolSurf_AUS7.4>
1.88598

>  <VolSurf_%FU4>
99.9876

>  <VolSurf_%FU5>
99.8762

>  <VolSurf_%FU6>
98.7759

>  <VolSurf_%FU7>
88.9632

>  <VolSurf_%FU8>
44.3715

>  <VolSurf_%FU9>
6.73572

>  <VolSurf_%FU10>
0.369845

>  <ID>
53

>  <MOKAID>
54

>  <Clearance Route>
metabolic

>  <PC1>
1.7089900000000002

>  <PC2>
2.17298

$$$$
Bepridil
  -OEChem-08301611272D

 27 29  0     1  0  0  0  0  0999 V2000
    1.3630    4.0441    0.0000 N   0  0  3  0  0  0  0  0  0  0  0  0
    0.4962    4.5428    0.0000 C   0  0  0  0  0  0  0  0  0  0  0  0
    0.4976    5.5480    0.0000 C   0  0  0  0  0  0  0  0  0  0  0  0
   -0.3691    6.0467    0.0000 C   0  0  0  0  0  0  0  0  0  0  0  0
   -1.2374    5.5505    0.0000 C   0  0  0  0  0  0  0  0  0  0  0  0
   -1.2388    4.5453    0.0000 C   0  0  0  0  0  0  0  0  0  0  0  0
   -0.3720    4.0363    0.0000 C   0  0  0  0  0  0  0  0  0  0  0  0
    1.3645    3.0441    0.0000 C   0  0  0  0  0  0  0  0  0  0  0  0
    0.4993    2.5428    0.0000 C   0  0  1  0  0  0  0  0  0  0  0  0
    0.5008    1.5428    0.0000 N   0  0  0  0  0  0  0  0  0  0  0  0
   -0.3065    0.9519    0.0000 C   0  0  0  0  0  0  0  0  0  0  0  0
    0.0000    0.0000    0.0000 C   0  0  0  0  0  0  0  0  0  0  0  0
    1.0015    0.0000    0.0000 C   0  0  0  0  0  0  0  0  0  0  0  0
    1.3133    0.9519    0.0000 C   0  0  0  0  0  0  0  0  0  0  0  0
   -0.3675    3.0415    0.0000 C   0  0  0  0  0  0  0  0  0  0  0  0
   -1.2328    2.5402    0.0000 O   0  0  0  0  0  0  0  0  0  0  0  0
   -2.0996    3.0388    0.0000 C   0  0  0  0  0  0  0  0  0  0  0  0
   -2.9648    2.5375    0.0000 C   0  0  0  0  0  0  0  0  0  0  0  0
   -2.9633    1.5375    0.0000 C   0  0  0  0  0  0  0  0  0  0  0  0
   -3.8316    3.0362    0.0000 C   0  0  0  0  0  0  0  0  0  0  0  0
    2.2283    4.5454    0.0000 C   0  0  0  0  0  0  0  0  0  0  0  0
    3.0951    4.0468    0.0000 C   0  0  0  0  0  0  0  0  0  0  0  0
    3.0936    3.0416    0.0000 C   0  0  0  0  0  0  0  0  0  0  0  0
    3.9604    2.5428    0.0000 C   0  0  0  0  0  0  0  0  0  0  0  0
    4.8286    3.0391    0.0000 C   0  0  0  0  0  0  0  0  0  0  0  0
    4.8301    4.0443    0.0000 C   0  0  0  0  0  0  0  0  0  0  0  0
    3.9633    4.5532    0.0000 C   0  0  0  0  0  0  0  0  0  0  0  0
  1  2  1  0  0  0  0
  2  7  2  0  0  0  0
  2  3  1  0  0  0  0
  3  4  2  0  0  0  0
  4  5  1  0  0  0  0
  5  6  2  0  0  0  0
  6  7  1  0  0  0  0
  1  8  1  0  0  0  0
  9  8  1  1  0  0  0
  9 10  1  0  0  0  0
 10 14  1  0  0  0  0
 10 11  1  0  0  0  0
 11 12  1  0  0  0  0
 12 13  1  0  0  0  0
 13 14  1  0  0  0  0
  9 15  1  0  0  0  0
 15 16  1  0  0  0  0
 16 17  1  0  0  0  0
 17 18  1  0  0  0  0
 18 19  1  0  0  0  0
 18 20  1  0  0  0  0
  1 21  1  0  0  0  0
 21 22  1  0  0  0  0
 22 27  2  0  0  0  0
 22 23  1  0  0  0  0
 23 24  2  0  0  0  0
 24 25  1  0  0  0  0
 25 26  2  0  0  0  0
 26 27  1  0  0  0  0
M  END
>  <Name>
Bepridil

>  <CAS #>
64706-54-3

>  <human Clearance (mL/min/kg)>
8.7

>  <Primary mechanism (metabolic, biliary or renal)>
metabolic

>  <seqId>
96.0

>  <Code (mechanism and clearance degree index)>
M1

>  < Five M1 and R1 test groups>
M1_5

>  <formamide>
0

>  <prodrug phosphates>
0

>  <VolSurf_V>
945.25

>  <VolSurf_S>
603.453

>  <VolSurf_R>
1.5664

>  <VolSurf_G>
1.47466

>  <VolSurf_IW1>
0.00531875

>  <VolSurf_IW2>
0.116966

>  <VolSurf_IW3>
0.312371

>  <VolSurf_IW4>
0.367159

>  <VolSurf_ID1>
0.0259114

>  <VolSurf_ID2>
0.0959748

>  <VolSurf_ID3>
0.168102

>  <VolSurf_ID4>
0.260794

>  <VolSurf_HL1>
0.339785

>  <VolSurf_HL2>
0.270386

>  <VolSurf_A>
5.18409

>  <VolSurf_CP>
2.24855

>  <VolSurf_POL>
46.728

>  <VolSurf_MW>
367.547

>  <VolSurf_FLEX>
2.9344

>  <VolSurf_FLEX_RB>
0.244534

>  <VolSurf_NCC>
1.0

>  <VolSurf_LOGP n-Oct>
5.409

>  <VolSurf_LOGP c-Hex>
5.402

>  <VolSurf_PSA>
26.95

>  <VolSurf_HSA>
576.503

>  <VolSurf_PSAR>
0.0446597

>  <VolSurf_PHSAR>
0.0467474

>  <VolSurf_LgD5>
2.63832

>  <VolSurf_LgD6>
3.65149

>  <VolSurf_LgD7>
4.59013

>  <VolSurf_LgD7.5>
4.96701

>  <VolSurf_LgD8>
5.21625

>  <VolSurf_LgD9>
5.38539

>  <VolSurf_LgD10>
5.40658

>  <VolSurf_AUS7.4>
1.50093

>  <VolSurf_%FU4>
0.00524897

>  <VolSurf_%FU5>
0.144004

>  <VolSurf_%FU6>
1.71743

>  <VolSurf_%FU7>
15.1481

>  <VolSurf_%FU8>
64.1463

>  <VolSurf_%FU9>
94.7076

>  <VolSurf_%FU10>
99.4443

>  <ID>
54

>  <MOKAID>
55

>  <Clearance Route>
metabolic

>  <PC1>
4.74354

>  <PC2>
-2.3752400000000002

$$$$
Betamipron
  -OEChem-08301611272D

 14 14  0     0  0  0  0  0  0999 V2000
    6.0636    1.4874    0.0000 O   0  0  0  0  0  0  0  0  0  0  0  0
    5.1991    1.9899    0.0000 C   0  0  0  0  0  0  0  0  0  0  0  0
    5.2020    2.9899    0.0000 O   0  0  0  0  0  0  0  0  0  0  0  0
    4.3316    1.4925    0.0000 C   0  0  0  0  0  0  0  0  0  0  0  0
    3.4670    1.9950    0.0000 C   0  0  0  0  0  0  0  0  0  0  0  0
    2.5995    1.4976    0.0000 N   0  0  0  0  0  0  0  0  0  0  0  0
    1.7350    2.0001    0.0000 C   0  0  0  0  0  0  0  0  0  0  0  0
    1.7379    3.0001    0.0000 O   0  0  0  0  0  0  0  0  0  0  0  0
    0.8675    1.5027    0.0000 C   0  0  0  0  0  0  0  0  0  0  0  0
    0.8675    0.4975    0.0000 C   0  0  0  0  0  0  0  0  0  0  0  0
    0.0000    0.0000    0.0000 C   0  0  0  0  0  0  0  0  0  0  0  0
   -0.8675    0.4975    0.0000 C   0  0  0  0  0  0  0  0  0  0  0  0
   -0.8675    1.5027    0.0000 C   0  0  0  0  0  0  0  0  0  0  0  0
    0.0000    2.0104    0.0000 C   0  0  0  0  0  0  0  0  0  0  0  0
  1  2  1  0  0  0  0
  2  3  2  0  0  0  0
  2  4  1  0  0  0  0
  4  5  1  0  0  0  0
  5  6  1  0  0  0  0
  6  7  1  0  0  0  0
  7  8  2  0  0  0  0
  7  9  1  0  0  0  0
  9 14  2  0  0  0  0
  9 10  1  0  0  0  0
 10 11  2  0  0  0  0
 11 12  1  0  0  0  0
 12 13  2  0  0  0  0
 13 14  1  0  0  0  0
M  END
>  <Name>
Betamipron

>  <CAS #>
3440-28-6

>  <human Clearance (mL/min/kg)>
9.2

>  <Primary mechanism (metabolic, biliary or renal)>
renal

>  <seqId>
99.0

>  <Code (mechanism and clearance degree index)>
R1

>  < Five M1 and R1 test groups>
R1_4

>  <formamide>
0

>  <prodrug phosphates>
0

>  <VolSurf_V>
470.75

>  <VolSurf_S>
341.377

>  <VolSurf_R>
1.37897

>  <VolSurf_G>
1.2599

>  <VolSurf_IW1>
0.245599

>  <VolSurf_IW2>
0.585332

>  <VolSurf_IW3>
1.22368

>  <VolSurf_IW4>
1.82238

>  <VolSurf_ID1>
0.150719

>  <VolSurf_ID2>
0.175302

>  <VolSurf_ID3>
0.213577

>  <VolSurf_ID4>
0.282316

>  <VolSurf_HL1>
3.95041

>  <VolSurf_HL2>
3.75524

>  <VolSurf_A>
6.59177

>  <VolSurf_CP>
0.390725

>  <VolSurf_POL>
19.162

>  <VolSurf_MW>
192.191

>  <VolSurf_FLEX>
1.2132

>  <VolSurf_FLEX_RB>
0.303299

>  <VolSurf_NCC>
1.0

>  <VolSurf_LOGP n-Oct>
0.555

>  <VolSurf_LOGP c-Hex>
-3.426

>  <VolSurf_PSA>
75.22

>  <VolSurf_HSA>
266.157

>  <VolSurf_PSAR>
0.220343

>  <VolSurf_PHSAR>
0.282615

>  <VolSurf_LgD5>
-0.404495

>  <VolSurf_LgD6>
-1.34543

>  <VolSurf_LgD7>
-2.22052

>  <VolSurf_LgD7.5>
-2.52135

>  <VolSurf_LgD8>
-2.68651

>  <VolSurf_LgD9>
-2.78019

>  <VolSurf_LgD10>
-2.79829

>  <VolSurf_AUS7.4>
0.0

>  <VolSurf_%FU4>
55.1178

>  <VolSurf_%FU5>
10.9374

>  <VolSurf_%FU6>
1.21316

>  <VolSurf_%FU7>
0.122653

>  <VolSurf_%FU8>
0.0122766

>  <VolSurf_%FU9>
0.0012256

>  <VolSurf_%FU10>
1.20404E-4

>  <ID>
55

>  <MOKAID>
56

>  <Clearance Route>
uncertain

>  <PC1>
-0.99482

>  <PC2>
5.08474

$$$$
Betaxolol
  -OEChem-08301611272D

 22 23  0     1  0  0  0  0  0999 V2000
    6.9311    1.9848    0.0000 C   0  0  0  0  0  0  0  0  0  0  0  0
    6.0636    1.4874    0.0000 C   0  0  0  0  0  0  0  0  0  0  0  0
    6.0607    0.4874    0.0000 C   0  0  0  0  0  0  0  0  0  0  0  0
    5.1991    1.9899    0.0000 N   0  0  0  0  0  0  0  0  0  0  0  0
    4.3316    1.4925    0.0000 C   0  0  0  0  0  0  0  0  0  0  0  0
    3.4670    1.9950    0.0000 C   0  0  3  0  0  0  0  0  0  0  0  0
    3.4700    2.9950    0.0000 O   0  0  0  0  0  0  0  0  0  0  0  0
    2.5995    1.4976    0.0000 C   0  0  0  0  0  0  0  0  0  0  0  0
    1.7350    2.0001    0.0000 O   0  0  0  0  0  0  0  0  0  0  0  0
    0.8675    1.5027    0.0000 C   0  0  0  0  0  0  0  0  0  0  0  0
    0.8675    0.4975    0.0000 C   0  0  0  0  0  0  0  0  0  0  0  0
    0.0000    0.0000    0.0000 C   0  0  0  0  0  0  0  0  0  0  0  0
   -0.8675    0.4975    0.0000 C   0  0  0  0  0  0  0  0  0  0  0  0
   -1.7328   -0.0038    0.0000 C   0  0  0  0  0  0  0  0  0  0  0  0
   -1.7313   -1.0038    0.0000 C   0  0  0  0  0  0  0  0  0  0  0  0
   -2.5966   -1.5050    0.0000 O   0  0  0  0  0  0  0  0  0  0  0  0
   -2.5952   -2.5050    0.0000 C   0  0  0  0  0  0  0  0  0  0  0  0
   -3.4605   -3.0063    0.0000 C   0  0  0  0  0  0  0  0  0  0  0  0
   -4.4624   -3.0088    0.0000 C   0  0  0  0  0  0  0  0  0  0  0  0
   -3.9611   -3.8741    0.0000 C   0  0  0  0  0  0  0  0  0  0  0  0
   -0.8675    1.5027    0.0000 C   0  0  0  0  0  0  0  0  0  0  0  0
    0.0000    2.0104    0.0000 C   0  0  0  0  0  0  0  0  0  0  0  0
  1  2  1  0  0  0  0
  2  3  1  0  0  0  0
  2  4  1  0  0  0  0
  4  5  1  0  0  0  0
  5  6  1  0  0  0  0
  6  7  1  0  0  0  0
  6  8  1  0  0  0  0
  8  9  1  0  0  0  0
  9 10  1  0  0  0  0
 10 22  2  0  0  0  0
 10 11  1  0  0  0  0
 11 12  2  0  0  0  0
 12 13  1  0  0  0  0
 13 14  1  0  0  0  0
 14 15  1  0  0  0  0
 15 16  1  0  0  0  0
 16 17  1  0  0  0  0
 17 18  1  0  0  0  0
 18 20  1  0  0  0  0
 18 19  1  0  0  0  0
 19 20  1  0  0  0  0
 13 21  2  0  0  0  0
 21 22  1  0  0  0  0
M  END
>  <Name>
Betaxolol

>  <CAS #>
63659-18-7

>  <human Clearance (mL/min/kg)>
3.4

>  <Primary mechanism (metabolic, biliary or renal)>
metabolism

>  <seqId>
100.0

>  <Code (mechanism and clearance degree index)>
M1

>  < Five M1 and R1 test groups>
M1_3

>  <formamide>
0

>  <prodrug phosphates>
0

>  <VolSurf_V>
818.5

>  <VolSurf_S>
581.957

>  <VolSurf_R>
1.40646

>  <VolSurf_G>
1.61284

>  <VolSurf_IW1>
0.059403

>  <VolSurf_IW2>
0.226981

>  <VolSurf_IW3>
0.494499

>  <VolSurf_IW4>
0.920521

>  <VolSurf_ID1>
0.0223088

>  <VolSurf_ID2>
0.0435951

>  <VolSurf_ID3>
0.0816948

>  <VolSurf_ID4>
0.106107

>  <VolSurf_HL1>
1.83013

>  <VolSurf_HL2>
2.28682

>  <VolSurf_A>
3.88018

>  <VolSurf_CP>
1.53726

>  <VolSurf_POL>
37.865

>  <VolSurf_MW>
308.436

>  <VolSurf_FLEX>
2.76334

>  <VolSurf_FLEX_RB>
0.197382

>  <VolSurf_NCC>
1.0

>  <VolSurf_LOGP n-Oct>
2.595

>  <VolSurf_LOGP c-Hex>
2.666

>  <VolSurf_PSA>
67.77

>  <VolSurf_HSA>
514.187

>  <VolSurf_PSAR>
0.116452

>  <VolSurf_PHSAR>
0.1318

>  <VolSurf_LgD5>
-0.780326

>  <VolSurf_LgD6>
-0.402678

>  <VolSurf_LgD7>
0.42801

>  <VolSurf_LgD7.5>
0.906262

>  <VolSurf_LgD8>
1.38267

>  <VolSurf_LgD9>
2.19049

>  <VolSurf_LgD10>
2.53284

>  <VolSurf_AUS7.4>
0.362752

>  <VolSurf_%FU4>
6.49557E-4

>  <VolSurf_%FU5>
0.00649519

>  <VolSurf_%FU6>
0.064914

>  <VolSurf_%FU7>
0.645369

>  <VolSurf_%FU8>
6.09942

>  <VolSurf_%FU9>
39.3778

>  <VolSurf_%FU10>
86.6588

>  <ID>
56

>  <MOKAID>
57

>  <Clearance Route>
possible billary

>  <PC1>
1.38334

>  <PC2>
-0.853959

$$$$
Bevantolol
  -OEChem-08301611272D

 25 26  0     1  0  0  0  0  0999 V2000
   -3.4670   -0.0025    0.0000 C   0  0  0  0  0  0  0  0  0  0  0  0
   -2.6003   -0.5013    0.0000 O   0  0  0  0  0  0  0  0  0  0  0  0
   -1.7350   -0.0000    0.0000 C   0  0  0  0  0  0  0  0  0  0  0  0
   -0.8675   -0.4975    0.0000 C   0  0  0  0  0  0  0  0  0  0  0  0
    0.0000    0.0000    0.0000 C   0  0  0  0  0  0  0  0  0  0  0  0
   -0.0000    1.0052    0.0000 C   0  0  0  0  0  0  0  0  0  0  0  0
    0.8675    1.5026    0.0000 C   0  0  0  0  0  0  0  0  0  0  0  0
    0.8704    2.5026    0.0000 C   0  0  0  0  0  0  0  0  0  0  0  0
    1.7379    3.0001    0.0000 N   0  0  0  0  0  0  0  0  0  0  0  0
    1.7409    4.0001    0.0000 C   0  0  0  0  0  0  0  0  0  0  0  0
    2.6084    4.4975    0.0000 C   0  0  3  0  0  0  0  0  0  0  0  0
    3.4729    3.9950    0.0000 O   0  0  0  0  0  0  0  0  0  0  0  0
    2.6113    5.4975    0.0000 C   0  0  0  0  0  0  0  0  0  0  0  0
    3.4788    5.9950    0.0000 O   0  0  0  0  0  0  0  0  0  0  0  0
    3.4818    6.9950    0.0000 C   0  0  0  0  0  0  0  0  0  0  0  0
    4.3553    7.4924    0.0000 C   0  0  0  0  0  0  0  0  0  0  0  0
    4.3583    8.4924    0.0000 C   0  0  0  0  0  0  0  0  0  0  0  0
    3.4966    9.0001    0.0000 C   0  0  0  0  0  0  0  0  0  0  0  0
    2.6232    8.5026    0.0000 C   0  0  0  0  0  0  0  0  0  0  0  0
    1.7616    9.0102    0.0000 C   0  0  0  0  0  0  0  0  0  0  0  0
    2.6113    7.4975    0.0000 C   0  0  0  0  0  0  0  0  0  0  0  0
   -0.8675    1.5129    0.0000 C   0  0  0  0  0  0  0  0  0  0  0  0
   -1.7350    1.0052    0.0000 C   0  0  0  0  0  0  0  0  0  0  0  0
   -2.6025    1.5026    0.0000 O   0  0  0  0  0  0  0  0  0  0  0  0
   -3.4670    1.0001    0.0000 C   0  0  0  0  0  0  0  0  0  0  0  0
  1  2  1  0  0  0  0
  2  3  1  0  0  0  0
  3 23  2  0  0  0  0
  3  4  1  0  0  0  0
  4  5  2  0  0  0  0
  5  6  1  0  0  0  0
  6  7  1  0  0  0  0
  7  8  1  0  0  0  0
  8  9  1  0  0  0  0
  9 10  1  0  0  0  0
 10 11  1  0  0  0  0
 11 12  1  0  0  0  0
 11 13  1  0  0  0  0
 13 14  1  0  0  0  0
 14 15  1  0  0  0  0
 15 21  2  0  0  0  0
 15 16  1  0  0  0  0
 16 17  2  0  0  0  0
 17 18  1  0  0  0  0
 18 19  2  0  0  0  0
 19 20  1  0  0  0  0
 19 21  1  0  0  0  0
  6 22  2  0  0  0  0
 22 23  1  0  0  0  0
 23 24  1  0  0  0  0
 24 25  1  0  0  0  0
M  END
>  <Name>
Bevantolol

>  <CAS #>
59170-23-9

>  <human Clearance (mL/min/kg)>
5.5

>  <Primary mechanism (metabolic, biliary or renal)>
metabolic

>  <seqId>
101.0

>  <Code (mechanism and clearance degree index)>
M1

>  < Five M1 and R1 test groups>
M1_3

>  <formamide>
0

>  <prodrug phosphates>
0

>  <VolSurf_V>
858.25

>  <VolSurf_S>
595.578

>  <VolSurf_R>
1.44104

>  <VolSurf_G>
1.59246

>  <VolSurf_IW1>
0.0381493

>  <VolSurf_IW2>
0.141844

>  <VolSurf_IW3>
0.492601

>  <VolSurf_IW4>
0.852952

>  <VolSurf_ID1>
0.0387199

>  <VolSurf_ID2>
0.0341333

>  <VolSurf_ID3>
0.0105952

>  <VolSurf_ID4>
0.0196089

>  <VolSurf_HL1>
1.07959

>  <VolSurf_HL2>
0.953668

>  <VolSurf_A>
3.13603

>  <VolSurf_CP>
3.29719

>  <VolSurf_POL>
41.596

>  <VolSurf_MW>
346.44

>  <VolSurf_FLEX>
2.89215

>  <VolSurf_FLEX_RB>
0.206582

>  <VolSurf_NCC>
1.0

>  <VolSurf_LOGP n-Oct>
2.928

>  <VolSurf_LOGP c-Hex>
3.126

>  <VolSurf_PSA>
78.1

>  <VolSurf_HSA>
517.478

>  <VolSurf_PSAR>
0.131133

>  <VolSurf_PHSAR>
0.150924

>  <VolSurf_LgD5>
-0.290302

>  <VolSurf_LgD6>
0.620953

>  <VolSurf_LgD7>
1.59282

>  <VolSurf_LgD7.5>
2.05081

>  <VolSurf_LgD8>
2.44111

>  <VolSurf_LgD9>
2.84634

>  <VolSurf_LgD10>
2.91911

>  <VolSurf_AUS7.4>
1.06168

>  <VolSurf_%FU4>
0.0048329

>  <VolSurf_%FU5>
0.048308

>  <VolSurf_%FU6>
0.480989

>  <VolSurf_%FU7>
4.61031

>  <VolSurf_%FU8>
32.5834

>  <VolSurf_%FU9>
82.8565

>  <VolSurf_%FU10>
97.9727

>  <ID>
57

>  <MOKAID>
58

>  <Clearance Route>
metabolic

>  <PC1>
2.0363

>  <PC2>
-1.59833

$$$$
BLP1654
  -OEChem-08301611272D

 31 33  0     1  0  0  0  0  0999 V2000
    1.0000   -1.0001    0.0000 N   0  0  0  0  0  0  0  0  0  0  0  0
    1.9511   -1.3093    0.0000 C   0  0  1  0  0  0  0  0  0  0  0  0
    2.5392   -0.5002    0.0000 C   0  0  0  0  0  0  0  0  0  0  0  0
    1.9514    0.3089    0.0000 S   0  0  0  0  0  0  0  0  0  0  0  0
    1.0001    0.0000    0.0000 C   0  0  2  0  0  0  0  0  0  0  0  0
    0.0000    0.0000    0.0000 C   0  0  1  0  0  0  0  0  0  0  0  0
    0.0000   -1.0001    0.0000 C   0  0  0  0  0  0  0  0  0  0  0  0
   -0.7071   -1.7072    0.0000 O   0  0  0  0  0  0  0  0  0  0  0  0
   -0.7071    0.7071    0.0000 N   0  0  0  0  0  0  0  0  0  0  0  0
   -1.6730    0.4483    0.0000 C   0  0  0  0  0  0  0  0  0  0  0  0
   -1.9319   -0.5176    0.0000 O   0  0  0  0  0  0  0  0  0  0  0  0
   -2.3801    1.1554    0.0000 C   0  0  1  0  0  0  0  0  0  0  0  0
   -3.3461    0.8966    0.0000 C   0  0  0  0  0  0  0  0  0  0  0  0
   -3.6034   -0.0751    0.0000 C   0  0  0  0  0  0  0  0  0  0  0  0
   -4.5693   -0.3340    0.0000 C   0  0  0  0  0  0  0  0  0  0  0  0
   -5.2806    0.3690    0.0000 C   0  0  0  0  0  0  0  0  0  0  0  0
   -5.0233    1.3407    0.0000 C   0  0  0  0  0  0  0  0  0  0  0  0
   -4.0547    1.6094    0.0000 C   0  0  0  0  0  0  0  0  0  0  0  0
   -2.1213    2.1213    0.0000 N   0  0  0  0  0  0  0  0  0  0  0  0
   -2.8284    2.8284    0.0000 C   0  0  0  0  0  0  0  0  0  0  0  0
   -3.7944    2.5696    0.0000 O   0  0  0  0  0  0  0  0  0  0  0  0
   -2.5696    3.7944    0.0000 N   0  0  0  0  0  0  0  0  0  0  0  0
   -3.2767    4.5015    0.0000 C   0  0  0  0  0  0  0  0  0  0  0  0
   -4.2426    4.2426    0.0000 N   0  0  0  0  0  0  0  0  0  0  0  0
   -3.0179    5.4674    0.0000 N   0  0  0  0  0  0  0  0  0  0  0  0
    3.2824    0.1689    0.0000 C   0  0  0  0  0  0  0  0  0  0  0  0
    3.2822   -1.1694    0.0000 C   0  0  0  0  0  0  0  0  0  0  0  0
    2.2599   -2.2604    0.0000 C   0  0  0  0  0  0  0  0  0  0  0  0
    1.5907   -3.0034    0.0000 O   0  0  0  0  0  0  0  0  0  0  0  0
    3.2381   -2.4685    0.0000 O   0  0  0  0  0  0  0  0  0  0  0  0
    0.8438    0.9877    0.0000 H   0  0  0  0  0  0  0  0  0  0  0  0
  1  7  1  0  0  0  0
  1  5  1  0  0  0  0
  1  2  1  0  0  0  0
  2  3  1  0  0  0  0
  3  4  1  0  0  0  0
  4  5  1  0  0  0  0
  5  6  1  0  0  0  0
  6  7  1  0  0  0  0
  7  8  2  0  0  0  0
  6  9  1  1  0  0  0
  9 10  1  0  0  0  0
 10 11  2  0  0  0  0
 12 10  1  1  0  0  0
 12 13  1  0  0  0  0
 13 18  2  0  0  0  0
 13 14  1  0  0  0  0
 14 15  2  0  0  0  0
 15 16  1  0  0  0  0
 16 17  2  0  0  0  0
 17 18  1  0  0  0  0
 12 19  1  0  0  0  0
 19 20  1  0  0  0  0
 20 21  2  0  0  0  0
 20 22  1  0  0  0  0
 22 23  1  0  0  0  0
 23 24  2  3  0  0  0
 23 25  1  0  0  0  0
  3 26  1  0  0  0  0
  3 27  1  0  0  0  0
  2 28  1  1  0  0  0
 28 29  2  0  0  0  0
 28 30  1  0  0  0  0
  5 31  1  6  0  0  0
M  END
>  <Name>
BLP1654

>  <CAS #>
28889-87-4

>  <human Clearance (mL/min/kg)>
1.6

>  <Primary mechanism (metabolic, biliary or renal)>
renal

>  <seqId>
114.0

>  <Code (mechanism and clearance degree index)>
R1

>  < Five M1 and R1 test groups>
R1_3

>  <formamide>
0

>  <prodrug phosphates>
0

>  <VolSurf_V>
841.625

>  <VolSurf_S>
559.652

>  <VolSurf_R>
1.50384

>  <VolSurf_G>
1.47922

>  <VolSurf_IW1>
0.0760383

>  <VolSurf_IW2>
0.188263

>  <VolSurf_IW3>
0.454917

>  <VolSurf_IW4>
0.662608

>  <VolSurf_ID1>
0.0582056

>  <VolSurf_ID2>
0.12696

>  <VolSurf_ID3>
0.22308

>  <VolSurf_ID4>
0.346431

>  <VolSurf_HL1>
7.64602

>  <VolSurf_HL2>
10.2718

>  <VolSurf_A>
5.69333

>  <VolSurf_CP>
0.17922

>  <VolSurf_POL>
41.421

>  <VolSurf_MW>
434.469

>  <VolSurf_FLEX>
2.64819

>  <VolSurf_FLEX_RB>
0.240744

>  <VolSurf_NCC>
2.0

>  <VolSurf_LOGP n-Oct>
0.061

>  <VolSurf_LOGP c-Hex>
-3.436

>  <VolSurf_PSA>
200.24

>  <VolSurf_HSA>
359.412

>  <VolSurf_PSAR>
0.357794

>  <VolSurf_PHSAR>
0.557132

>  <VolSurf_LgD5>
-2.24158

>  <VolSurf_LgD6>
-2.24175

>  <VolSurf_LgD7>
-2.26346

>  <VolSurf_LgD7.5>
-2.31117

>  <VolSurf_LgD8>
-2.42945

>  <VolSurf_LgD9>
-2.91063

>  <VolSurf_LgD10>
-3.22214

>  <VolSurf_AUS7.4>
0.0

>  <VolSurf_%FU4>
0.0

>  <VolSurf_%FU5>
0.0

>  <VolSurf_%FU6>
0.0

>  <VolSurf_%FU7>
0.0

>  <VolSurf_%FU8>
0.0

>  <VolSurf_%FU9>
0.0

>  <VolSurf_%FU10>
0.0

>  <ID>
58

>  <MOKAID>
59

>  <Clearance Route>
renal

>  <PC1>
-3.2122

>  <PC2>
0.20261600000000002

$$$$
BMS-214662
  -OEChem-08301611272D

 34 38  0     1  0  0  0  0  0999 V2000
    3.6766   -0.9814    0.0000 O   0  0  0  0  0  0  0  0  0  0  0  0
    4.2937   -0.1946    0.0000 S   0  0  0  0  0  0  0  0  0  0  0  0
    4.9109    0.5923    0.0000 O   0  0  0  0  0  0  0  0  0  0  0  0
    3.5069    0.4226    0.0000 N   0  0  3  0  0  0  0  0  0  0  0  0
    2.6022   -0.0243    0.0000 C   0  0  0  0  0  0  0  0  0  0  0  0
    1.6906    0.4013    0.0000 C   0  0  0  0  0  0  0  0  0  0  0  0
    0.9648   -0.2906    0.0000 C   0  0  0  0  0  0  0  0  0  0  0  0
    0.0000    0.0000    0.0000 C   0  0  0  0  0  0  0  0  0  0  0  0
   -0.2322    0.9784    0.0000 C   0  0  0  0  0  0  0  0  0  0  0  0
    0.5003    1.6662    0.0000 C   0  0  0  0  0  0  0  0  0  0  0  0
    1.4584    1.3796    0.0000 C   0  0  0  0  0  0  0  0  0  0  0  0
    2.0794    2.1743    0.0000 N   0  0  3  0  0  0  0  0  0  0  0  0
    1.6379    3.0716    0.0000 C   0  0  0  0  0  0  0  0  0  0  0  0
    2.1942    3.9025    0.0000 C   0  0  0  0  0  0  0  0  0  0  0  0
    1.8461    4.8400    0.0000 C   0  0  0  0  0  0  0  0  0  0  0  0
    2.6328    5.4596    0.0000 N   0  0  0  0  0  0  0  0  0  0  0  0
    3.4666    4.9046    0.0000 C   0  0  0  0  0  0  0  0  0  0  0  0
    3.1938    3.9379    0.0000 N   0  0  0  0  0  0  0  0  0  0  0  0
    3.0873    2.1814    0.0000 C   0  0  0  0  0  0  0  0  0  0  0  0
    3.7246    1.4039    0.0000 C   0  0  1  0  0  0  0  0  0  0  0  0
    4.6973    1.6359    0.0000 C   0  0  0  0  0  0  0  0  0  0  0  0
    4.9827    2.5943    0.0000 C   0  0  0  0  0  0  0  0  0  0  0  0
    4.2897    3.3224    0.0000 C   0  0  0  0  0  0  0  0  0  0  0  0
    4.5751    4.2809    0.0000 C   0  0  0  0  0  0  0  0  0  0  0  0
    5.5465    4.5186    0.0000 C   0  0  0  0  0  0  0  0  0  0  0  0
    6.2395    3.7905    0.0000 C   0  0  0  0  0  0  0  0  0  0  0  0
    5.9611    2.8247    0.0000 C   0  0  0  0  0  0  0  0  0  0  0  0
   -0.7278   -0.6857    0.0000 C   0  0  0  0  0  0  0  0  0  0  0  0
   -1.4557   -1.3715    0.0000 N   0  0  0  0  0  0  0  0  0  0  0  0
    5.0806   -0.8117    0.0000 C   0  0  0  0  0  0  0  0  0  0  0  0
    6.0442   -0.5384    0.0000 C   0  0  0  0  0  0  0  0  0  0  0  0
    6.6038   -1.3690    0.0000 C   0  0  0  0  0  0  0  0  0  0  0  0
    5.9857   -2.1551    0.0000 C   0  0  0  0  0  0  0  0  0  0  0  0
    5.0445   -1.8158    0.0000 S   0  0  0  0  0  0  0  0  0  0  0  0
  1  2  2  0  0  0  0
  2  3  2  0  0  0  0
  2  4  1  0  0  0  0
  4 20  1  0  0  0  0
  4  5  1  0  0  0  0
  5  6  1  0  0  0  0
  6 11  2  0  0  0  0
  6  7  1  0  0  0  0
  7  8  2  0  0  0  0
  8  9  1  0  0  0  0
  9 10  2  0  0  0  0
 10 11  1  0  0  0  0
 11 12  1  0  0  0  0
 12 13  1  0  0  0  0
 13 14  1  0  0  0  0
 14 18  1  0  0  0  0
 14 15  2  0  0  0  0
 15 16  1  0  0  0  0
 16 17  2  0  0  0  0
 17 18  1  0  0  0  0
 12 19  1  0  0  0  0
 19 20  1  0  0  0  0
 20 21  1  1  0  0  0
 21 22  1  0  0  0  0
 22 27  2  0  0  0  0
 22 23  1  0  0  0  0
 23 24  2  0  0  0  0
 24 25  1  0  0  0  0
 25 26  2  0  0  0  0
 26 27  1  0  0  0  0
  8 28  1  0  0  0  0
 28 29  3  0  0  0  0
  2 30  1  0  0  0  0
 30 34  1  0  0  0  0
 30 31  2  0  0  0  0
 31 32  1  0  0  0  0
 32 33  2  0  0  0  0
 33 34  1  0  0  0  0
M  END
>  <Name>
BMS-214662

>  <CAS #>
195987-41-8

>  <human Clearance (mL/min/kg)>
9.6

>  <Primary mechanism (metabolic, biliary or renal)>
metabolic

>  <seqId>
115.0

>  <Code (mechanism and clearance degree index)>
M1

>  < Five M1 and R1 test groups>
M1_2

>  <formamide>
0

>  <prodrug phosphates>
0

>  <VolSurf_V>
999.25

>  <VolSurf_S>
642.075

>  <VolSurf_R>
1.55628

>  <VolSurf_G>
1.53101

>  <VolSurf_IW1>
0.0133776

>  <VolSurf_IW2>
0.0531142

>  <VolSurf_IW3>
0.128342

>  <VolSurf_IW4>
1.48383

>  <VolSurf_ID1>
0.0139272

>  <VolSurf_ID2>
0.0729459

>  <VolSurf_ID3>
0.11395

>  <VolSurf_ID4>
0.133596

>  <VolSurf_HL1>
0.783851

>  <VolSurf_HL2>
0.263672

>  <VolSurf_A>
2.31089

>  <VolSurf_CP>
2.1135

>  <VolSurf_POL>
53.407

>  <VolSurf_MW>
489.612

>  <VolSurf_FLEX>
1.90897

>  <VolSurf_FLEX_RB>
0.27271

>  <VolSurf_NCC>
0.0

>  <VolSurf_LOGP n-Oct>
3.621

>  <VolSurf_LOGP c-Hex>
0.706

>  <VolSurf_PSA>
108.402

>  <VolSurf_HSA>
533.673

>  <VolSurf_PSAR>
0.168831

>  <VolSurf_PHSAR>
0.203125

>  <VolSurf_LgD5>
1.54565

>  <VolSurf_LgD6>
2.50028

>  <VolSurf_LgD7>
3.27373

>  <VolSurf_LgD7.5>
3.4788

>  <VolSurf_LgD8>
3.57081

>  <VolSurf_LgD9>
3.61571

>  <VolSurf_LgD10>
3.62046

>  <VolSurf_AUS7.4>
1.83193

>  <VolSurf_%FU4>
0.0815199

>  <VolSurf_%FU5>
0.809346

>  <VolSurf_%FU6>
7.54403

>  <VolSurf_%FU7>
44.9327

>  <VolSurf_%FU8>
89.0825

>  <VolSurf_%FU9>
98.789

>  <VolSurf_%FU10>
99.8751

>  <ID>
59

>  <MOKAID>
60

>  <Clearance Route>
metabolic

>  <PC1>
3.02528

>  <PC2>
-2.54684

$$$$
Bromazepam
  -OEChem-08301611272D

 19 21  0     0  0  0  0  0  0999 V2000
   -0.7278   -0.6857    0.0000 Br  0  0  0  0  0  0  0  0  0  0  0  0
    0.0000    0.0000    0.0000 C   0  0  0  0  0  0  0  0  0  0  0  0
   -0.2322    0.9784    0.0000 C   0  0  0  0  0  0  0  0  0  0  0  0
    0.5003    1.6662    0.0000 C   0  0  0  0  0  0  0  0  0  0  0  0
    1.4584    1.3796    0.0000 C   0  0  0  0  0  0  0  0  0  0  0  0
    2.0794    2.1743    0.0000 N   0  0  0  0  0  0  0  0  0  0  0  0
    3.0873    2.1814    0.0000 C   0  0  0  0  0  0  0  0  0  0  0  0
    3.5119    3.0868    0.0000 O   0  0  0  0  0  0  0  0  0  0  0  0
    3.7246    1.4039    0.0000 C   0  0  0  0  0  0  0  0  0  0  0  0
    3.5069    0.4226    0.0000 N   0  0  0  0  0  0  0  0  0  0  0  0
    2.6022   -0.0243    0.0000 C   0  0  0  0  0  0  0  0  0  0  0  0
    2.6132   -1.0242    0.0000 C   0  0  0  0  0  0  0  0  0  0  0  0
    3.4907   -1.5146    0.0000 C   0  0  0  0  0  0  0  0  0  0  0  0
    3.5017   -2.5146    0.0000 C   0  0  0  0  0  0  0  0  0  0  0  0
    2.6442   -3.0292    0.0000 C   0  0  0  0  0  0  0  0  0  0  0  0
    1.7668   -2.5388    0.0000 C   0  0  0  0  0  0  0  0  0  0  0  0
    1.7468   -1.5338    0.0000 N   0  0  0  0  0  0  0  0  0  0  0  0
    1.6906    0.4013    0.0000 C   0  0  0  0  0  0  0  0  0  0  0  0
    0.9648   -0.2906    0.0000 C   0  0  0  0  0  0  0  0  0  0  0  0
  1  2  1  0  0  0  0
  2 19  2  0  0  0  0
  2  3  1  0  0  0  0
  3  4  2  0  0  0  0
  4  5  1  0  0  0  0
  5 18  2  0  0  0  0
  5  6  1  0  0  0  0
  6  7  1  0  0  0  0
  7  8  2  0  0  0  0
  7  9  1  0  0  0  0
  9 10  1  0  0  0  0
 10 11  2  0  0  0  0
 11 12  1  0  0  0  0
 12 17  2  0  0  0  0
 12 13  1  0  0  0  0
 13 14  2  0  0  0  0
 14 15  1  0  0  0  0
 15 16  2  0  0  0  0
 16 17  1  0  0  0  0
 11 18  1  0  0  0  0
 18 19  1  0  0  0  0
M  END
>  <Name>
Bromazepam

>  <CAS #>
1812-30-2

>  <human Clearance (mL/min/kg)>
0.51

>  <Primary mechanism (metabolic, biliary or renal)>
metabolic

>  <seqId>
118.0

>  <Code (mechanism and clearance degree index)>
M1

>  < Five M1 and R1 test groups>
M1_2

>  <formamide>
0

>  <prodrug phosphates>
0

>  <VolSurf_V>
592.5

>  <VolSurf_S>
410.932

>  <VolSurf_R>
1.44185

>  <VolSurf_G>
1.32203

>  <VolSurf_IW1>
0.114397

>  <VolSurf_IW2>
0.4036

>  <VolSurf_IW3>
0.992667

>  <VolSurf_IW4>
1.53675

>  <VolSurf_ID1>
0.0530699

>  <VolSurf_ID2>
0.0689857

>  <VolSurf_ID3>
0.0987719

>  <VolSurf_ID4>
0.11852

>  <VolSurf_HL1>
1.19316

>  <VolSurf_HL2>
0.993485

>  <VolSurf_A>
5.08747

>  <VolSurf_CP>
2.42758

>  <VolSurf_POL>
28.948

>  <VolSurf_MW>
316.153

>  <VolSurf_FLEX>
0.280011

>  <VolSurf_FLEX_RB>
0.280011

>  <VolSurf_NCC>
0.0

>  <VolSurf_LOGP n-Oct>
1.992

>  <VolSurf_LOGP c-Hex>
0.939

>  <VolSurf_PSA>
54.36

>  <VolSurf_HSA>
356.572

>  <VolSurf_PSAR>
0.132285

>  <VolSurf_PHSAR>
0.152452

>  <VolSurf_LgD5>
1.98427

>  <VolSurf_LgD6>
1.99122

>  <VolSurf_LgD7>
1.9919

>  <VolSurf_LgD7.5>
1.99189

>  <VolSurf_LgD8>
1.99173

>  <VolSurf_LgD9>
1.98939

>  <VolSurf_LgD10>
1.96655

>  <VolSurf_AUS7.4>
2.0

>  <VolSurf_%FU4>
84.3052

>  <VolSurf_%FU5>
98.2359

>  <VolSurf_%FU6>
99.8208

>  <VolSurf_%FU7>
99.9761

>  <VolSurf_%FU8>
99.9379

>  <VolSurf_%FU9>
99.3997

>  <VolSurf_%FU10>
94.3062

>  <ID>
60

>  <MOKAID>
61

>  <Clearance Route>
metabolic

>  <PC1>
4.32245

>  <PC2>
2.24238

$$$$
Bromfenac
  -OEChem-08301611272D

 20 21  0     0  0  0  0  0  0999 V2000
    0.8675    2.5129    0.0000 N   0  0  0  0  0  0  0  0  0  0  0  0
    0.8675    1.5129    0.0000 C   0  0  0  0  0  0  0  0  0  0  0  0
    0.0000    1.0052    0.0000 C   0  0  0  0  0  0  0  0  0  0  0  0
   -0.8675    1.5026    0.0000 C   0  0  0  0  0  0  0  0  0  0  0  0
   -1.7320    1.0001    0.0000 C   0  0  0  0  0  0  0  0  0  0  0  0
   -1.7291    0.0001    0.0000 O   0  0  0  0  0  0  0  0  0  0  0  0
   -2.5995    1.4975    0.0000 O   0  0  0  0  0  0  0  0  0  0  0  0
    0.0000    0.0000    0.0000 C   0  0  0  0  0  0  0  0  0  0  0  0
    0.8675   -0.4975    0.0000 C   0  0  0  0  0  0  0  0  0  0  0  0
    1.7350    0.0000    0.0000 C   0  0  0  0  0  0  0  0  0  0  0  0
    1.7350    1.0052    0.0000 C   0  0  0  0  0  0  0  0  0  0  0  0
    2.6025    1.5026    0.0000 C   0  0  0  0  0  0  0  0  0  0  0  0
    3.4670    1.0001    0.0000 O   0  0  0  0  0  0  0  0  0  0  0  0
    2.6054    2.5026    0.0000 C   0  0  0  0  0  0  0  0  0  0  0  0
    1.7349    3.0052    0.0000 C   0  0  0  0  0  0  0  0  0  0  0  0
    1.7378    4.0053    0.0000 C   0  0  0  0  0  0  0  0  0  0  0  0
    2.6024    4.5078    0.0000 C   0  0  0  0  0  0  0  0  0  0  0  0
    2.6010    5.5078    0.0000 Br  0  0  0  0  0  0  0  0  0  0  0  0
    3.4729    4.0052    0.0000 C   0  0  0  0  0  0  0  0  0  0  0  0
    3.4789    3.0001    0.0000 C   0  0  0  0  0  0  0  0  0  0  0  0
  1  2  1  0  0  0  0
  2 11  2  0  0  0  0
  2  3  1  0  0  0  0
  3  4  1  0  0  0  0
  4  5  1  0  0  0  0
  5  6  2  0  0  0  0
  5  7  1  0  0  0  0
  3  8  2  0  0  0  0
  8  9  1  0  0  0  0
  9 10  2  0  0  0  0
 10 11  1  0  0  0  0
 11 12  1  0  0  0  0
 12 13  2  0  0  0  0
 12 14  1  0  0  0  0
 14 20  2  0  0  0  0
 14 15  1  0  0  0  0
 15 16  2  0  0  0  0
 16 17  1  0  0  0  0
 17 18  1  0  0  0  0
 17 19  2  0  0  0  0
 19 20  1  0  0  0  0
M  END
>  <Name>
Bromfenac

>  <CAS #>
91714-94-2

>  <human Clearance (mL/min/kg)>
1.3

>  <Primary mechanism (metabolic, biliary or renal)>
metabolic

>  <seqId>
119.0

>  <Code (mechanism and clearance degree index)>
M1

>  < Five M1 and R1 test groups>
M1_3

>  <formamide>
0

>  <prodrug phosphates>
0

>  <VolSurf_V>
628.25

>  <VolSurf_S>
442.665

>  <VolSurf_R>
1.41925

>  <VolSurf_G>
1.39397

>  <VolSurf_IW1>
0.120419

>  <VolSurf_IW2>
0.343045

>  <VolSurf_IW3>
0.773844

>  <VolSurf_IW4>
1.24693

>  <VolSurf_ID1>
0.111782

>  <VolSurf_ID2>
0.202196

>  <VolSurf_ID3>
0.263993

>  <VolSurf_ID4>
0.343109

>  <VolSurf_HL1>
3.18563

>  <VolSurf_HL2>
2.8

>  <VolSurf_A>
7.41102

>  <VolSurf_CP>
0.332957

>  <VolSurf_POL>
29.613

>  <VolSurf_MW>
333.157

>  <VolSurf_FLEX>
1.26047

>  <VolSurf_FLEX_RB>
0.252094

>  <VolSurf_NCC>
1.0

>  <VolSurf_LOGP n-Oct>
3.316

>  <VolSurf_LOGP c-Hex>
0.233

>  <VolSurf_PSA>
89.21

>  <VolSurf_HSA>
353.455

>  <VolSurf_PSAR>
0.201529

>  <VolSurf_PHSAR>
0.252394

>  <VolSurf_LgD5>
2.42597

>  <VolSurf_LgD6>
1.49181

>  <VolSurf_LgD7>
0.600224

>  <VolSurf_LgD7.5>
0.278452

>  <VolSurf_LgD8>
0.0929474

>  <VolSurf_LgD9>
-0.0160142

>  <VolSurf_LgD10>
-0.028581

>  <VolSurf_AUS7.4>
0.0

>  <VolSurf_%FU4>
55.5853

>  <VolSurf_%FU5>
12.8424

>  <VolSurf_%FU6>
1.45461

>  <VolSurf_%FU7>
0.147393

>  <VolSurf_%FU8>
0.0147589

>  <VolSurf_%FU9>
0.00147609

>  <VolSurf_%FU10>
1.47611E-4

>  <ID>
61

>  <MOKAID>
62

>  <Clearance Route>
uncertain

>  <PC1>
0.48105699999999996

>  <PC2>
2.21327

$$$$
Bromopride
  -OEChem-08301611272D

 20 20  0     0  0  0  0  0  0999 V2000
   -5.1918   -5.0050    0.0000 C   0  0  0  0  0  0  0  0  0  0  0  0
   -4.3265   -4.5038    0.0000 C   0  0  0  0  0  0  0  0  0  0  0  0
   -4.3280   -3.5038    0.0000 N   0  0  0  0  0  0  0  0  0  0  0  0
   -5.1947   -3.0050    0.0000 C   0  0  0  0  0  0  0  0  0  0  0  0
   -6.0600   -3.5063    0.0000 C   0  0  0  0  0  0  0  0  0  0  0  0
   -3.4627   -3.0025    0.0000 C   0  0  0  0  0  0  0  0  0  0  0  0
   -3.4641   -2.0025    0.0000 C   0  0  0  0  0  0  0  0  0  0  0  0
   -2.5988   -1.5013    0.0000 N   0  0  0  0  0  0  0  0  0  0  0  0
   -2.6003   -0.5013    0.0000 C   0  0  0  0  0  0  0  0  0  0  0  0
   -3.4670   -0.0025    0.0000 O   0  0  0  0  0  0  0  0  0  0  0  0
   -1.7350   -0.0000    0.0000 C   0  0  0  0  0  0  0  0  0  0  0  0
   -0.8675   -0.4975    0.0000 C   0  0  0  0  0  0  0  0  0  0  0  0
    0.0000    0.0000    0.0000 C   0  0  0  0  0  0  0  0  0  0  0  0
    0.8653   -0.5013    0.0000 Br  0  0  0  0  0  0  0  0  0  0  0  0
   -0.0000    1.0052    0.0000 C   0  0  0  0  0  0  0  0  0  0  0  0
    0.8675    1.5026    0.0000 N   0  0  0  0  0  0  0  0  0  0  0  0
   -0.8675    1.5129    0.0000 C   0  0  0  0  0  0  0  0  0  0  0  0
   -1.7350    1.0052    0.0000 C   0  0  0  0  0  0  0  0  0  0  0  0
   -2.6025    1.5026    0.0000 O   0  0  0  0  0  0  0  0  0  0  0  0
   -3.4670    1.0001    0.0000 C   0  0  0  0  0  0  0  0  0  0  0  0
  1  2  1  0  0  0  0
  2  3  1  0  0  0  0
  3  4  1  0  0  0  0
  4  5  1  0  0  0  0
  3  6  1  0  0  0  0
  6  7  1  0  0  0  0
  7  8  1  0  0  0  0
  8  9  1  0  0  0  0
  9 10  2  0  0  0  0
  9 11  1  0  0  0  0
 11 18  2  0  0  0  0
 11 12  1  0  0  0  0
 12 13  2  0  0  0  0
 13 14  1  0  0  0  0
 13 15  1  0  0  0  0
 15 16  1  0  0  0  0
 15 17  2  0  0  0  0
 17 18  1  0  0  0  0
 18 19  1  0  0  0  0
 19 20  1  0  0  0  0
M  END
>  <Name>
Bromopride

>  <CAS #>
4093-35-0

>  <human Clearance (mL/min/kg)>
13.0

>  <Primary mechanism (metabolic, biliary or renal)>
metabolic

>  <seqId>
120.0

>  <Code (mechanism and clearance degree index)>
M1

>  < Five M1 and R1 test groups>
M1_1

>  <formamide>
0

>  <prodrug phosphates>
0

>  <VolSurf_V>
729.625

>  <VolSurf_S>
501.115

>  <VolSurf_R>
1.456

>  <VolSurf_G>
1.44571

>  <VolSurf_IW1>
0.0489725

>  <VolSurf_IW2>
0.154549

>  <VolSurf_IW3>
0.431012

>  <VolSurf_IW4>
0.882521

>  <VolSurf_ID1>
0.0292982

>  <VolSurf_ID2>
0.112885

>  <VolSurf_ID3>
0.177769

>  <VolSurf_ID4>
0.216946

>  <VolSurf_HL1>
1.18323

>  <VolSurf_HL2>
0.753555

>  <VolSurf_A>
3.59672

>  <VolSurf_CP>
1.04743

>  <VolSurf_POL>
34.4

>  <VolSurf_MW>
345.255

>  <VolSurf_FLEX>
1.73558

>  <VolSurf_FLEX_RB>
0.15778

>  <VolSurf_NCC>
1.0

>  <VolSurf_LOGP n-Oct>
1.989

>  <VolSurf_LOGP c-Hex>
-1.37

>  <VolSurf_PSA>
77.96

>  <VolSurf_HSA>
423.155

>  <VolSurf_PSAR>
0.155573

>  <VolSurf_PHSAR>
0.184235

>  <VolSurf_LgD5>
-1.87971

>  <VolSurf_LgD6>
-0.934405

>  <VolSurf_LgD7>
0.0552095

>  <VolSurf_LgD7.5>
0.543979

>  <VolSurf_LgD8>
1.01139

>  <VolSurf_LgD9>
1.72181

>  <VolSurf_LgD10>
1.95266

>  <VolSurf_AUS7.4>
0.552754

>  <VolSurf_%FU4>
0.00117583

>  <VolSurf_%FU5>
0.0117641

>  <VolSurf_%FU6>
0.117524

>  <VolSurf_%FU7>
1.16294

>  <VolSurf_%FU8>
10.5275

>  <VolSurf_%FU9>
54.0507

>  <VolSurf_%FU10>
91.9736

>  <ID>
62

>  <MOKAID>
63

>  <Clearance Route>
metabolic

>  <PC1>
0.757279

>  <PC2>
0.430525

$$$$
Brotizolam
  -OEChem-08301611272D

 22 25  0     0  0  0  0  0  0999 V2000
   -0.6807   -3.9974    0.0000 C   0  0  0  0  0  0  0  0  0  0  0  0
   -1.0396   -3.0640    0.0000 C   0  0  0  0  0  0  0  0  0  0  0  0
   -2.0190   -2.8023    0.0000 N   0  0  0  0  0  0  0  0  0  0  0  0
   -2.0725   -1.7898    0.0000 N   0  0  0  0  0  0  0  0  0  0  0  0
   -1.1263   -1.4261    0.0000 C   0  0  0  0  0  0  0  0  0  0  0  0
   -0.9097   -0.4394    0.0000 C   0  0  0  0  0  0  0  0  0  0  0  0
    0.0000    0.0000    0.0000 N   0  0  0  0  0  0  0  0  0  0  0  0
    0.9159   -0.4326    0.0000 C   0  0  0  0  0  0  0  0  0  0  0  0
    1.6939    0.1957    0.0000 C   0  0  0  0  0  0  0  0  0  0  0  0
    2.6275   -0.1626    0.0000 C   0  0  0  0  0  0  0  0  0  0  0  0
    3.4083    0.4623    0.0000 C   0  0  0  0  0  0  0  0  0  0  0  0
    3.2538    1.4556    0.0000 C   0  0  0  0  0  0  0  0  0  0  0  0
    2.3186    1.8239    0.0000 C   0  0  0  0  0  0  0  0  0  0  0  0
    1.5394    1.1889    0.0000 C   0  0  0  0  0  0  0  0  0  0  0  0
    0.6058    1.5472    0.0000 Cl  0  0  0  0  0  0  0  0  0  0  0  0
    1.1461   -1.4195    0.0000 C   0  0  0  0  0  0  0  0  0  0  0  0
    2.0965   -1.7773    0.0000 C   0  0  0  0  0  0  0  0  0  0  0  0
    2.0502   -2.7917    0.0000 C   0  0  0  0  0  0  0  0  0  0  0  0
    2.8315   -3.4158    0.0000 Br  0  0  0  0  0  0  0  0  0  0  0  0
    1.0708   -3.0611    0.0000 S   0  0  0  0  0  0  0  0  0  0  0  0
    0.5121   -2.2129    0.0000 C   0  0  0  0  0  0  0  0  0  0  0  0
   -0.4879   -2.2137    0.0000 N   0  0  0  0  0  0  0  0  0  0  0  0
  1  2  1  0  0  0  0
  2 22  1  0  0  0  0
  2  3  2  0  0  0  0
  3  4  1  0  0  0  0
  4  5  2  0  0  0  0
  5 22  1  0  0  0  0
  5  6  1  0  0  0  0
  6  7  1  0  0  0  0
  7  8  2  0  0  0  0
  8  9  1  0  0  0  0
  9 14  2  0  0  0  0
  9 10  1  0  0  0  0
 10 11  2  0  0  0  0
 11 12  1  0  0  0  0
 12 13  2  0  0  0  0
 13 14  1  0  0  0  0
 14 15  1  0  0  0  0
  8 16  1  0  0  0  0
 16 21  2  0  0  0  0
 16 17  1  0  0  0  0
 17 18  2  0  0  0  0
 18 19  1  0  0  0  0
 18 20  1  0  0  0  0
 20 21  1  0  0  0  0
 21 22  1  0  0  0  0
M  END
>  <Name>
Brotizolam

>  <CAS #>
57801-81-7

>  <human Clearance (mL/min/kg)>
2.0

>  <Primary mechanism (metabolic, biliary or renal)>
metabolic

>  <seqId>
123.0

>  <Code (mechanism and clearance degree index)>
M1

>  < Five M1 and R1 test groups>
M1_1

>  <formamide>
0

>  <prodrug phosphates>
0

>  <VolSurf_V>
680.125

>  <VolSurf_S>
462.037

>  <VolSurf_R>
1.47201

>  <VolSurf_G>
1.37309

>  <VolSurf_IW1>
0.0938509

>  <VolSurf_IW2>
0.35832

>  <VolSurf_IW3>
1.06167

>  <VolSurf_IW4>
1.56196

>  <VolSurf_ID1>
0.0467557

>  <VolSurf_ID2>
0.0449006

>  <VolSurf_ID3>
0.0198407

>  <VolSurf_ID4>
0.0361799

>  <VolSurf_HL1>
0.684685

>  <VolSurf_HL2>
0.451193

>  <VolSurf_A>
6.12504

>  <VolSurf_CP>
5.80782

>  <VolSurf_POL>
35.776

>  <VolSurf_MW>
393.688

>  <VolSurf_FLEX>
0.342447

>  <VolSurf_FLEX_RB>
0.171223

>  <VolSurf_NCC>
0.0

>  <VolSurf_LOGP n-Oct>
2.773

>  <VolSurf_LOGP c-Hex>
3.838

>  <VolSurf_PSA>
52.67

>  <VolSurf_HSA>
409.367

>  <VolSurf_PSAR>
0.113995

>  <VolSurf_PHSAR>
0.128662

>  <VolSurf_LgD5>
1.44763

>  <VolSurf_LgD6>
2.30627

>  <VolSurf_LgD7>
2.69671

>  <VolSurf_LgD7.5>
2.7474

>  <VolSurf_LgD8>
2.76474

>  <VolSurf_LgD9>
2.77217

>  <VolSurf_LgD10>
2.77292

>  <VolSurf_AUS7.4>
1.97126

>  <VolSurf_%FU4>
0.33209

>  <VolSurf_%FU5>
4.6989

>  <VolSurf_%FU6>
34.1198

>  <VolSurf_%FU7>
83.8847

>  <VolSurf_%FU8>
98.116

>  <VolSurf_%FU9>
99.8084

>  <VolSurf_%FU10>
99.9808

>  <ID>
63

>  <MOKAID>
64

>  <Clearance Route>
metabolic

>  <PC1>
4.35773

>  <PC2>
0.8853790000000001

$$$$
Budesonide
  -OEChem-08301611272D

 35 39  0     1  0  0  0  0  0999 V2000
    8.3739    5.5111    0.0000 C   0  0  0  0  0  0  0  0  0  0  0  0
    7.5648    4.9233    0.0000 C   0  0  0  0  0  0  0  0  0  0  0  0
    7.6693    3.9288    0.0000 C   0  0  0  0  0  0  0  0  0  0  0  0
    6.8602    3.3411    0.0000 C   0  0  3  0  0  0  0  0  0  0  0  0
    6.8600    2.3306    0.0000 O   0  0  0  0  0  0  0  0  0  0  0  0
    5.8990    2.0186    0.0000 C   0  0  2  0  0  0  0  0  0  0  0  0
    5.3110    1.1991    0.0000 C   0  0  0  0  0  0  0  0  0  0  0  0
    4.3477    1.5085    0.0000 C   0  0  1  0  0  0  0  0  0  0  0  0
    3.4759    1.0071    0.0000 C   0  0  2  0  0  0  0  0  0  0  0  0
    3.4748    0.0023    0.0000 C   0  0  0  0  0  0  0  0  0  0  0  0
    2.6038   -0.4989    0.0000 C   0  0  0  0  0  0  0  0  0  0  0  0
    1.7371    0.0000    0.0000 C   0  0  0  0  0  0  0  0  0  0  0  0
    0.8679   -0.4977    0.0000 C   0  0  0  0  0  0  0  0  0  0  0  0
   -0.0000    0.0000    0.0000 C   0  0  0  0  0  0  0  0  0  0  0  0
   -0.8653   -0.5013    0.0000 O   0  0  0  0  0  0  0  0  0  0  0  0
    0.0000    1.0111    0.0000 C   0  0  0  0  0  0  0  0  0  0  0  0
    0.8679    1.5136    0.0000 C   0  0  0  0  0  0  0  0  0  0  0  0
    1.7358    1.0056    0.0000 C   0  0  1  0  0  0  0  0  0  0  0  0
    2.6037    0.5088    0.0000 C   0  0  0  0  0  0  0  0  0  0  0  0
    2.6012    1.5124    0.0000 C   0  0  1  0  0  0  0  0  0  0  0  0
    2.5967    2.5197    0.0000 C   0  0  1  0  0  0  0  0  0  0  0  0
    1.7301    3.0188    0.0000 O   0  0  0  0  0  0  0  0  0  0  0  0
    3.4743    3.0237    0.0000 C   0  0  0  0  0  0  0  0  0  0  0  0
    4.3442    2.5202    0.0000 C   0  0  1  0  0  0  0  0  0  0  0  0
    5.1552    1.9352    0.0000 C   0  0  0  0  0  0  0  0  0  0  0  0
    5.3053    2.8360    0.0000 C   0  0  2  0  0  0  0  0  0  0  0  0
    5.8993    3.6533    0.0000 O   0  0  0  0  0  0  0  0  0  0  0  0
    4.2744    4.2502    0.0000 C   0  0  0  0  0  0  0  0  0  0  0  0
    4.6797    5.1643    0.0000 O   0  0  0  0  0  0  0  0  0  0  0  0
    3.2801    4.1441    0.0000 C   0  0  0  0  0  0  0  0  0  0  0  0
    2.6910    4.9521    0.0000 O   0  0  0  0  0  0  0  0  0  0  0  0
    6.4891    1.2113    0.0000 H   0  0  0  0  0  0  0  0  0  0  0  0
    4.4531    0.5141    0.0000 H   0  0  0  0  0  0  0  0  0  0  0  0
    4.3412    0.5059    0.0000 H   0  0  0  0  0  0  0  0  0  0  0  0
    1.7325    2.0078    0.0000 H   0  0  0  0  0  0  0  0  0  0  0  0
  1  2  1  0  0  0  0
  2  3  1  0  0  0  0
  3  4  1  0  0  0  0
  4 27  1  0  0  0  0
  4  5  1  0  0  0  0
  5  6  1  0  0  0  0
  6 26  1  0  0  0  0
  6  7  1  0  0  0  0
  7  8  1  0  0  0  0
  8 24  1  0  0  0  0
  8  9  1  0  0  0  0
  9 20  1  0  0  0  0
  9 10  1  0  0  0  0
 10 11  1  0  0  0  0
 11 12  1  0  0  0  0
 12 18  1  0  0  0  0
 12 13  2  0  0  0  0
 13 14  1  0  0  0  0
 14 15  2  0  0  0  0
 14 16  1  0  0  0  0
 16 17  2  0  0  0  0
 17 18  1  0  0  0  0
 18 19  1  1  0  0  0
 18 20  1  0  0  0  0
 20 21  1  0  0  0  0
 21 22  1  1  0  0  0
 21 23  1  0  0  0  0
 23 24  1  0  0  0  0
 24 25  1  1  0  0  0
 24 26  1  0  0  0  0
 26 27  1  0  0  0  0
 26 28  1  1  0  0  0
 28 29  2  0  0  0  0
 28 30  1  0  0  0  0
 30 31  1  0  0  0  0
  6 32  1  1  0  0  0
  8 33  1  6  0  0  0
  9 34  1  1  0  0  0
 20 35  1  6  0  0  0
M  END
>  <Name>
Budesonide

>  <CAS #>
51333-22-3

>  <human Clearance (mL/min/kg)>
20.0

>  <Primary mechanism (metabolic, biliary or renal)>
metabolic

>  <seqId>
124.0

>  <Code (mechanism and clearance degree index)>
M1

>  < Five M1 and R1 test groups>
M1_2

>  <formamide>
0

>  <prodrug phosphates>
0

>  <VolSurf_V>
885.375

>  <VolSurf_S>
571.777

>  <VolSurf_R>
1.54846

>  <VolSurf_G>
1.45207

>  <VolSurf_IW1>
0.0324188

>  <VolSurf_IW2>
0.0676529

>  <VolSurf_IW3>
0.132727

>  <VolSurf_IW4>
0.211203

>  <VolSurf_ID1>
0.0264314

>  <VolSurf_ID2>
0.136438

>  <VolSurf_ID3>
0.25521

>  <VolSurf_ID4>
0.352078

>  <VolSurf_HL1>
7.14706

>  <VolSurf_HL2>
8.78161

>  <VolSurf_A>
4.71116

>  <VolSurf_CP>
0.153974

>  <VolSurf_POL>
44.533

>  <VolSurf_MW>
430.534

>  <VolSurf_FLEX>
0.610981

>  <VolSurf_FLEX_RB>
0.0678867

>  <VolSurf_NCC>
0.0

>  <VolSurf_LOGP n-Oct>
3.023

>  <VolSurf_LOGP c-Hex>
1.836

>  <VolSurf_PSA>
99.66

>  <VolSurf_HSA>
472.117

>  <VolSurf_PSAR>
0.174299

>  <VolSurf_PHSAR>
0.211092

>  <VolSurf_LgD5>
3.023

>  <VolSurf_LgD6>
3.023

>  <VolSurf_LgD7>
3.02299

>  <VolSurf_LgD7.5>
3.02298

>  <VolSurf_LgD8>
3.02295

>  <VolSurf_LgD9>
3.02251

>  <VolSurf_LgD10>
3.0181

>  <VolSurf_AUS7.4>
2.0

>  <VolSurf_%FU4>
100.0

>  <VolSurf_%FU5>
100.0

>  <VolSurf_%FU6>
99.9999

>  <VolSurf_%FU7>
99.9989

>  <VolSurf_%FU8>
99.9887

>  <VolSurf_%FU9>
99.8868

>  <VolSurf_%FU10>
98.8781

>  <ID>
64

>  <MOKAID>
65

>  <Clearance Route>
metabolic

>  <PC1>
3.75494

>  <PC2>
-1.07063

$$$$
Buflomedil
  -OEChem-08301611272D

 22 23  0     0  0  0  0  0  0999 V2000
   -0.3832    9.0504    0.0000 C   0  0  0  0  0  0  0  0  0  0  0  0
   -1.2462    8.5453    0.0000 O   0  0  0  0  0  0  0  0  0  0  0  0
   -1.2403    7.5453    0.0000 C   0  0  0  0  0  0  0  0  0  0  0  0
   -2.1093    7.0401    0.0000 C   0  0  0  0  0  0  0  0  0  0  0  0
   -2.1035    6.0401    0.0000 C   0  0  0  0  0  0  0  0  0  0  0  0
   -2.9680    5.5375    0.0000 O   0  0  0  0  0  0  0  0  0  0  0  0
   -2.9650    4.5375    0.0000 C   0  0  0  0  0  0  0  0  0  0  0  0
   -1.2374    5.5401    0.0000 C   0  0  0  0  0  0  0  0  0  0  0  0
   -1.2358    4.5401    0.0000 C   0  0  0  0  0  0  0  0  0  0  0  0
   -2.1011    4.0388    0.0000 O   0  0  0  0  0  0  0  0  0  0  0  0
   -0.3690    4.0415    0.0000 C   0  0  0  0  0  0  0  0  0  0  0  0
   -0.3675    3.0415    0.0000 C   0  0  0  0  0  0  0  0  0  0  0  0
    0.4993    2.5428    0.0000 C   0  0  0  0  0  0  0  0  0  0  0  0
    0.5008    1.5428    0.0000 N   0  0  0  0  0  0  0  0  0  0  0  0
   -0.3065    0.9519    0.0000 C   0  0  0  0  0  0  0  0  0  0  0  0
    0.0000    0.0000    0.0000 C   0  0  0  0  0  0  0  0  0  0  0  0
    1.0015    0.0000    0.0000 C   0  0  0  0  0  0  0  0  0  0  0  0
    1.3133    0.9519    0.0000 C   0  0  0  0  0  0  0  0  0  0  0  0
   -0.3683    6.0453    0.0000 C   0  0  0  0  0  0  0  0  0  0  0  0
    0.4977    5.5454    0.0000 O   0  0  0  0  0  0  0  0  0  0  0  0
    1.3637    6.0454    0.0000 C   0  0  0  0  0  0  0  0  0  0  0  0
   -0.3654    7.0505    0.0000 C   0  0  0  0  0  0  0  0  0  0  0  0
  1  2  1  0  0  0  0
  2  3  1  0  0  0  0
  3 22  2  0  0  0  0
  3  4  1  0  0  0  0
  4  5  2  0  0  0  0
  5  6  1  0  0  0  0
  6  7  1  0  0  0  0
  5  8  1  0  0  0  0
  8  9  1  0  0  0  0
  9 10  2  0  0  0  0
  9 11  1  0  0  0  0
 11 12  1  0  0  0  0
 12 13  1  0  0  0  0
 13 14  1  0  0  0  0
 14 18  1  0  0  0  0
 14 15  1  0  0  0  0
 15 16  1  0  0  0  0
 16 17  1  0  0  0  0
 17 18  1  0  0  0  0
  8 19  2  0  0  0  0
 19 20  1  0  0  0  0
 20 21  1  0  0  0  0
 19 22  1  0  0  0  0
M  END
>  <Name>
Buflomedil

>  <CAS #>
55837-25-7

>  <human Clearance (mL/min/kg)>
5.6

>  <Primary mechanism (metabolic, biliary or renal)>
metabolic

>  <seqId>
125.0

>  <Code (mechanism and clearance degree index)>
M1

>  < Five M1 and R1 test groups>
M1_5

>  <formamide>
0

>  <prodrug phosphates>
0

>  <VolSurf_V>
758.625

>  <VolSurf_S>
532.378

>  <VolSurf_R>
1.42497

>  <VolSurf_G>
1.52257

>  <VolSurf_IW1>
0.0536118

>  <VolSurf_IW2>
0.200672

>  <VolSurf_IW3>
0.584807

>  <VolSurf_IW4>
1.03565

>  <VolSurf_ID1>
0.030709

>  <VolSurf_ID2>
0.0825085

>  <VolSurf_ID3>
0.122483

>  <VolSurf_ID4>
0.178875

>  <VolSurf_HL1>
1.23592

>  <VolSurf_HL2>
0.769231

>  <VolSurf_A>
4.41927

>  <VolSurf_CP>
1.26464

>  <VolSurf_POL>
34.825

>  <VolSurf_MW>
308.392

>  <VolSurf_FLEX>
1.69623

>  <VolSurf_FLEX_RB>
0.154203

>  <VolSurf_NCC>
1.0

>  <VolSurf_LOGP n-Oct>
2.496

>  <VolSurf_LOGP c-Hex>
2.762

>  <VolSurf_PSA>
62.77

>  <VolSurf_HSA>
469.608

>  <VolSurf_PSAR>
0.117905

>  <VolSurf_PHSAR>
0.133665

>  <VolSurf_LgD5>
-0.910901

>  <VolSurf_LgD6>
-0.618274

>  <VolSurf_LgD7>
0.151257

>  <VolSurf_LgD7.5>
0.623842

>  <VolSurf_LgD8>
1.10402

>  <VolSurf_LgD9>
1.96661

>  <VolSurf_LgD10>
2.40309

>  <VolSurf_AUS7.4>
0.240942

>  <VolSurf_%FU4>
4.19022E-4

>  <VolSurf_%FU5>
0.00419006

>  <VolSurf_%FU6>
0.0418848

>  <VolSurf_%FU7>
0.417275

>  <VolSurf_%FU8>
4.02171

>  <VolSurf_%FU9>
29.529

>  <VolSurf_%FU10>
80.733

>  <ID>
65

>  <MOKAID>
66

>  <Clearance Route>
metabolic

>  <PC1>
1.23325

>  <PC2>
0.13838499999999998

$$$$
Bunazosin
  -OEChem-08301611272D

 27 29  0     1  0  0  0  0  0999 V2000
    9.1169    4.5437    0.0000 C   0  0  0  0  0  0  0  0  0  0  0  0
    8.1198    4.6200    0.0000 C   0  0  0  0  0  0  0  0  0  0  0  0
    7.5552    3.7946    0.0000 C   0  0  0  0  0  0  0  0  0  0  0  0
    6.5581    3.8709    0.0000 C   0  0  0  0  0  0  0  0  0  0  0  0
    6.1256    4.7725    0.0000 O   0  0  0  0  0  0  0  0  0  0  0  0
    5.9935    3.0455    0.0000 N   0  0  0  0  0  0  0  0  0  0  0  0
    6.4911    2.1781    0.0000 C   0  0  0  0  0  0  0  0  0  0  0  0
    6.1237    1.2406    0.0000 C   0  0  0  0  0  0  0  0  0  0  0  0
    5.1665    0.9407    0.0000 C   0  0  0  0  0  0  0  0  0  0  0  0
    4.3394    1.5082    0.0000 N   0  0  3  0  0  0  0  0  0  0  0  0
    4.2607    2.5109    0.0000 C   0  0  0  0  0  0  0  0  0  0  0  0
    4.9979    3.1959    0.0000 C   0  0  0  0  0  0  0  0  0  0  0  0
    3.4735    1.0079    0.0000 C   0  0  0  0  0  0  0  0  0  0  0  0
    3.4748    0.0023    0.0000 N   0  0  0  0  0  0  0  0  0  0  0  0
    2.6038   -0.4989    0.0000 C   0  0  0  0  0  0  0  0  0  0  0  0
    2.6037   -1.4989    0.0000 N   0  0  0  0  0  0  0  0  0  0  0  0
    1.7371    0.0000    0.0000 C   0  0  0  0  0  0  0  0  0  0  0  0
    0.8679   -0.4977    0.0000 C   0  0  0  0  0  0  0  0  0  0  0  0
    0.0000    0.0000    0.0000 C   0  0  0  0  0  0  0  0  0  0  0  0
   -0.8653   -0.5013    0.0000 O   0  0  0  0  0  0  0  0  0  0  0  0
   -0.8638   -1.5013    0.0000 C   0  0  0  0  0  0  0  0  0  0  0  0
   -0.0000    1.0056    0.0000 C   0  0  0  0  0  0  0  0  0  0  0  0
   -0.8675    1.5031    0.0000 O   0  0  0  0  0  0  0  0  0  0  0  0
   -1.7320    1.0005    0.0000 C   0  0  0  0  0  0  0  0  0  0  0  0
    0.8679    1.5135    0.0000 C   0  0  0  0  0  0  0  0  0  0  0  0
    1.7358    1.0056    0.0000 C   0  0  0  0  0  0  0  0  0  0  0  0
    2.6012    1.5123    0.0000 N   0  0  0  0  0  0  0  0  0  0  0  0
  1  2  1  0  0  0  0
  2  3  1  0  0  0  0
  3  4  1  0  0  0  0
  4  5  2  0  0  0  0
  4  6  1  0  0  0  0
  6 12  1  0  0  0  0
  6  7  1  0  0  0  0
  7  8  1  0  0  0  0
  8  9  1  0  0  0  0
  9 10  1  0  0  0  0
 10 11  1  0  0  0  0
 11 12  1  0  0  0  0
 10 13  1  0  0  0  0
 13 27  2  0  0  0  0
 13 14  1  0  0  0  0
 14 15  2  0  0  0  0
 15 16  1  0  0  0  0
 15 17  1  0  0  0  0
 17 26  2  0  0  0  0
 17 18  1  0  0  0  0
 18 19  2  0  0  0  0
 19 20  1  0  0  0  0
 20 21  1  0  0  0  0
 19 22  1  0  0  0  0
 22 23  1  0  0  0  0
 23 24  1  0  0  0  0
 22 25  2  0  0  0  0
 25 26  1  0  0  0  0
 26 27  1  0  0  0  0
M  END
>  <Name>
Bunazosin

>  <CAS #>
80755-51-7

>  <human Clearance (mL/min/kg)>
4.8

>  <Primary mechanism (metabolic, biliary or renal)>
metabolism

>  <seqId>
128.0

>  <Code (mechanism and clearance degree index)>
M1

>  < Five M1 and R1 test groups>
M1_4

>  <formamide>
0

>  <prodrug phosphates>
0

>  <VolSurf_V>
826.0

>  <VolSurf_S>
567.883

>  <VolSurf_R>
1.45452

>  <VolSurf_G>
1.54057

>  <VolSurf_IW1>
0.0403211

>  <VolSurf_IW2>
0.11996

>  <VolSurf_IW3>
0.441653

>  <VolSurf_IW4>
0.858674

>  <VolSurf_ID1>
0.033225

>  <VolSurf_ID2>
0.0224601

>  <VolSurf_ID3>
0.0681694

>  <VolSurf_ID4>
0.115621

>  <VolSurf_HL1>
1.10256

>  <VolSurf_HL2>
0.709677

>  <VolSurf_A>
3.12713

>  <VolSurf_CP>
6.03249

>  <VolSurf_POL>
40.109

>  <VolSurf_MW>
373.449

>  <VolSurf_FLEX>
0.785708

>  <VolSurf_FLEX_RB>
0.0785708

>  <VolSurf_NCC>
0.0

>  <VolSurf_LOGP n-Oct>
2.699

>  <VolSurf_LOGP c-Hex>
-0.805

>  <VolSurf_PSA>
97.23

>  <VolSurf_HSA>
470.653

>  <VolSurf_PSAR>
0.171215

>  <VolSurf_PHSAR>
0.206585

>  <VolSurf_LgD5>
0.956502

>  <VolSurf_LgD6>
1.88527

>  <VolSurf_LgD7>
2.50808

>  <VolSurf_LgD7.5>
2.62911

>  <VolSurf_LgD8>
2.67566

>  <VolSurf_LgD9>
2.69661

>  <VolSurf_LgD10>
2.69876

>  <VolSurf_AUS7.4>
1.91737

>  <VolSurf_%FU4>
0.180693

>  <VolSurf_%FU5>
1.77821

>  <VolSurf_%FU6>
15.329

>  <VolSurf_%FU7>
64.4181

>  <VolSurf_%FU8>
94.7655

>  <VolSurf_%FU9>
99.4507

>  <VolSurf_%FU10>
99.9448

>  <ID>
66

>  <MOKAID>
67

>  <Clearance Route>
metabolic

>  <PC1>
2.87182

>  <PC2>
-1.01674

$$$$
Buprenorphine
  -OEChem-08301611272D

 36 42  0     1  0  0  0  0  0999 V2000
    6.1513   -2.9423    0.0000 C   0  0  0  0  0  0  0  0  0  0  0  0
    6.8324   -2.2101    0.0000 O   0  0  0  0  0  0  0  0  0  0  0  0
    6.5388   -1.2542    0.0000 C   0  0  2  0  0  0  0  0  0  0  0  0
    7.5914   -0.1225    0.0000 C   0  0  0  0  0  0  0  0  0  0  0  0
    7.1377    1.3548    0.0000 C   0  0  0  0  0  0  0  0  0  0  0  0
    5.6314    1.7006    0.0000 C   0  0  1  0  0  0  0  0  0  0  0  0
    6.8123    0.9595    0.0000 C   0  0  0  0  0  0  0  0  0  0  0  0
    7.0613   -0.0090    0.0000 C   0  0  2  0  0  0  0  0  0  0  0  0
    8.8067   -0.1363    0.0000 C   0  0  2  0  0  0  0  0  0  0  0  0
    8.8794    0.8610    0.0000 C   0  0  0  0  0  0  0  0  0  0  0  0
    8.7339   -1.1337    0.0000 O   0  0  0  0  0  0  0  0  0  0  0  0
    9.8040   -0.2091    0.0000 C   0  0  0  0  0  0  0  0  0  0  0  0
    9.8768    0.7883    0.0000 C   0  0  0  0  0  0  0  0  0  0  0  0
    9.7313   -1.2064    0.0000 C   0  0  0  0  0  0  0  0  0  0  0  0
   10.8014   -0.2818    0.0000 C   0  0  0  0  0  0  0  0  0  0  0  0
    4.6218    3.2455    0.0000 C   0  0  1  0  0  0  0  0  0  0  0  0
    3.0765    3.2455    0.0000 C   0  0  0  0  0  0  0  0  0  0  0  0
    2.0179    1.7589    0.0000 C   0  0  0  0  0  0  0  0  0  0  0  0
    0.5013    1.4620    0.0000 C   0  0  0  0  0  0  0  0  0  0  0  0
    0.0000    0.0000    0.0000 C   0  0  0  0  0  0  0  0  0  0  0  0
    1.0155   -1.1650    0.0000 C   0  0  0  0  0  0  0  0  0  0  0  0
    0.6912   -2.1110    0.0000 O   0  0  0  0  0  0  0  0  0  0  0  0
    2.5321   -0.8681    0.0000 C   0  0  0  0  0  0  0  0  0  0  0  0
    3.7678   -1.7965    0.0000 O   0  0  0  0  0  0  0  0  0  0  0  0
    5.0325   -0.9084    0.0000 C   0  0  2  0  0  0  0  0  0  0  0  0
    4.5788    0.5689    0.0000 C   0  0  1  0  0  0  0  0  0  0  0  0
    2.9960    1.7613    0.0000 C   0  0  0  0  0  0  0  0  0  0  0  0
    2.2862    3.6069    0.0000 C   0  0  0  0  0  0  0  0  0  0  0  0
    4.1829    4.6213    0.0000 N   0  0  3  0  0  0  0  0  0  0  0  0
    4.5589    5.5479    0.0000 C   0  0  0  0  0  0  0  0  0  0  0  0
    3.9444    6.3368    0.0000 C   0  0  0  0  0  0  0  0  0  0  0  0
    3.8053    7.3290    0.0000 C   0  0  0  0  0  0  0  0  0  0  0  0
    3.0164    6.7145    0.0000 C   0  0  0  0  0  0  0  0  0  0  0  0
    3.0334    0.5689    0.0000 C   0  0  0  0  0  0  0  0  0  0  0  0
    5.5249    3.6749    0.0000 H   0  0  0  0  0  0  0  0  0  0  0  0
    5.2246   -1.8898    0.0000 H   0  0  0  0  0  0  0  0  0  0  0  0
  1  2  1  0  0  0  0
  3  2  1  1  0  0  0
  3  8  1  0  0  0  0
  3 25  1  0  0  0  0
  3  4  1  0  0  0  0
  4  5  1  0  0  0  0
  6  5  1  6  0  0  0
  6 26  1  0  0  0  0
  6  7  1  1  0  0  0
  8  7  1  6  0  0  0
  8  9  1  0  0  0  0
  9 10  1  0  0  0  0
  9 11  1  6  0  0  0
  9 12  1  0  0  0  0
 12 13  1  0  0  0  0
 12 14  1  0  0  0  0
 12 15  1  0  0  0  0
  6 16  1  0  0  0  0
 16 29  1  0  0  0  0
 16 17  1  0  0  0  0
 17 18  1  0  0  0  0
 18 34  2  0  0  0  0
 18 19  1  0  0  0  0
 19 20  2  0  0  0  0
 20 21  1  0  0  0  0
 21 22  1  0  0  0  0
 21 23  2  0  0  0  0
 23 34  1  0  0  0  0
 23 24  1  0  0  0  0
 24 25  1  0  0  0  0
 25 26  1  0  0  0  0
 26 27  1  1  0  0  0
 27 28  1  0  0  0  0
 28 29  1  0  0  0  0
 29 30  1  0  0  0  0
 30 31  1  0  0  0  0
 31 33  1  0  0  0  0
 31 32  1  0  0  0  0
 32 33  1  0  0  0  0
 26 34  1  0  0  0  0
 16 35  1  6  0  0  0
 25 36  1  1  0  0  0
M  END
>  <Name>
Buprenorphine

>  <CAS #>
52485-79-7

>  <human Clearance (mL/min/kg)>
19.0

>  <Primary mechanism (metabolic, biliary or renal)>
metabolic

>  <seqId>
130.0

>  <Code (mechanism and clearance degree index)>
M1

>  < Five M1 and R1 test groups>
M1_1

>  <formamide>
0

>  <prodrug phosphates>
0

>  <VolSurf_V>
981.75

>  <VolSurf_S>
603.723

>  <VolSurf_R>
1.62616

>  <VolSurf_G>
1.42079

>  <VolSurf_IW1>
0.0479209

>  <VolSurf_IW2>
0.177196

>  <VolSurf_IW3>
0.408103

>  <VolSurf_IW4>
0.593099

>  <VolSurf_ID1>
0.0253667

>  <VolSurf_ID2>
0.0763203

>  <VolSurf_ID3>
0.183441

>  <VolSurf_ID4>
0.255825

>  <VolSurf_HL1>
1.90698

>  <VolSurf_HL2>
2.25962

>  <VolSurf_A>
4.74866

>  <VolSurf_CP>
0.661561

>  <VolSurf_POL>
53.8171

>  <VolSurf_MW>
468.648

>  <VolSurf_FLEX>
0.857211

>  <VolSurf_FLEX_RB>
0.0714343

>  <VolSurf_NCC>
1.0

>  <VolSurf_LOGP n-Oct>
4.374

>  <VolSurf_LOGP c-Hex>
2.307

>  <VolSurf_PSA>
75.83

>  <VolSurf_HSA>
527.893

>  <VolSurf_PSAR>
0.125604

>  <VolSurf_PHSAR>
0.143647

>  <VolSurf_LgD5>
1.56912

>  <VolSurf_LgD6>
1.91445

>  <VolSurf_LgD7>
2.71873

>  <VolSurf_LgD7.5>
3.18138

>  <VolSurf_LgD8>
3.61931

>  <VolSurf_LgD9>
4.1708

>  <VolSurf_LgD10>
4.01603

>  <VolSurf_AUS7.4>
0.760581

>  <VolSurf_%FU4>
0.00212305

>  <VolSurf_%FU5>
0.0212264

>  <VolSurf_%FU6>
0.211859

>  <VolSurf_%FU7>
2.0789

>  <VolSurf_%FU8>
17.4717

>  <VolSurf_%FU9>
62.2916

>  <VolSurf_%FU10>
41.8321

>  <ID>
67

>  <MOKAID>
68

>  <Clearance Route>
metabolic

>  <PC1>
2.44119

>  <PC2>
-2.07674

$$$$
Butorphanol
  -OEChem-08301611272D

 25 29  0     1  0  0  0  0  0999 V2000
   -1.7409    0.0255    0.0000 O   0  0  0  0  0  0  0  0  0  0  0  0
   -0.8842   -0.4903    0.0000 C   0  0  0  0  0  0  0  0  0  0  0  0
   -0.0000    0.0000    0.0000 C   0  0  0  0  0  0  0  0  0  0  0  0
    0.8648   -0.5226    0.0000 C   0  0  0  0  0  0  0  0  0  0  0  0
    0.8474   -1.5281    0.0000 C   0  0  0  0  0  0  0  0  0  0  0  0
    1.7083   -2.0368    0.0000 C   0  0  0  0  0  0  0  0  0  0  0  0
    1.6954   -3.0420    0.0000 C   0  0  1  0  0  0  0  0  0  0  0  0
    2.5608   -3.5551    0.0000 N   0  0  3  0  0  0  0  0  0  0  0  0
    3.5607   -3.5660    0.0000 C   0  0  0  0  0  0  0  0  0  0  0  0
    4.0702   -2.7056    0.0000 C   0  0  0  0  0  0  0  0  0  0  0  0
    5.0389   -2.4574    0.0000 C   0  0  0  0  0  0  0  0  0  0  0  0
    4.7907   -1.4887    0.0000 C   0  0  0  0  0  0  0  0  0  0  0  0
    3.8220   -1.7368    0.0000 C   0  0  0  0  0  0  0  0  0  0  0  0
    1.6860   -4.0481    0.0000 C   0  0  0  0  0  0  0  0  0  0  0  0
   -0.0518   -4.0277    0.0000 C   0  0  0  0  0  0  0  0  0  0  0  0
   -0.0423   -3.0217    0.0000 C   0  0  2  0  0  0  0  0  0  0  0  0
   -0.9106   -3.5298    0.0000 C   0  0  0  0  0  0  0  0  0  0  0  0
   -0.9106   -4.5359    0.0000 C   0  0  0  0  0  0  0  0  0  0  0  0
   -0.0423   -5.0338    0.0000 C   0  0  0  0  0  0  0  0  0  0  0  0
    0.8260   -4.5359    0.0000 C   0  0  0  0  0  0  0  0  0  0  0  0
    0.8239   -3.5335    0.0000 C   0  0  1  0  0  0  0  0  0  0  0  0
   -0.0441   -4.0300    0.0000 O   0  0  0  0  0  0  0  0  0  0  0  0
   -0.0369   -2.0184    0.0000 C   0  0  0  0  0  0  0  0  0  0  0  0
   -0.9039   -1.5034    0.0000 C   0  0  0  0  0  0  0  0  0  0  0  0
    2.5675   -2.5526    0.0000 H   0  0  0  0  0  0  0  0  0  0  0  0
  1  2  1  0  0  0  0
  2 24  2  0  0  0  0
  2  3  1  0  0  0  0
  3  4  2  0  0  0  0
  4  5  1  0  0  0  0
  5 23  2  0  0  0  0
  5  6  1  0  0  0  0
  6  7  1  0  0  0  0
  7 21  1  0  0  0  0
  7  8  1  0  0  0  0
  8  9  1  0  0  0  0
  9 10  1  0  0  0  0
 10 13  1  0  0  0  0
 10 11  1  0  0  0  0
 11 12  1  0  0  0  0
 12 13  1  0  0  0  0
  8 14  1  0  0  0  0
 14 15  1  0  0  0  0
 16 15  1  1  0  0  0
 16 21  1  0  0  0  0
 16 17  1  6  0  0  0
 17 18  1  0  0  0  0
 18 19  1  0  0  0  0
 19 20  1  0  0  0  0
 20 21  1  0  0  0  0
 21 22  1  1  0  0  0
 16 23  1  0  0  0  0
 23 24  1  0  0  0  0
  7 25  1  6  0  0  0
M  END
>  <Name>
Butorphanol

>  <CAS #>
42408-82-2

>  <human Clearance (mL/min/kg)>
41.0

>  <Primary mechanism (metabolic, biliary or renal)>
metabolic

>  <seqId>
133.0

>  <Code (mechanism and clearance degree index)>
M1

>  < Five M1 and R1 test groups>
M1_4

>  <formamide>
0

>  <prodrug phosphates>
0

>  <VolSurf_V>
743.25

>  <VolSurf_S>
482.58

>  <VolSurf_R>
1.54016

>  <VolSurf_G>
1.3412

>  <VolSurf_IW1>
0.0437808

>  <VolSurf_IW2>
0.166915

>  <VolSurf_IW3>
0.295319

>  <VolSurf_IW4>
0.536539

>  <VolSurf_ID1>
0.0206661

>  <VolSurf_ID2>
0.0762737

>  <VolSurf_ID3>
0.209225

>  <VolSurf_ID4>
0.383034

>  <VolSurf_HL1>
1.61353

>  <VolSurf_HL2>
1.58889

>  <VolSurf_A>
2.981

>  <VolSurf_CP>
0.90938

>  <VolSurf_POL>
39.411

>  <VolSurf_MW>
328.468

>  <VolSurf_FLEX>
0.632226

>  <VolSurf_FLEX_RB>
0.158057

>  <VolSurf_NCC>
1.0

>  <VolSurf_LOGP n-Oct>
3.207

>  <VolSurf_LOGP c-Hex>
-0.0460003

>  <VolSurf_PSA>
51.87

>  <VolSurf_HSA>
430.71

>  <VolSurf_PSAR>
0.107485

>  <VolSurf_PHSAR>
0.120429

>  <VolSurf_LgD5>
0.429139

>  <VolSurf_LgD6>
0.857534

>  <VolSurf_LgD7>
1.70771

>  <VolSurf_LgD7.5>
2.16757

>  <VolSurf_LgD8>
2.58596

>  <VolSurf_LgD9>
3.07648

>  <VolSurf_LgD10>
3.07674

>  <VolSurf_AUS7.4>
0.902609

>  <VolSurf_%FU4>
0.00313104

>  <VolSurf_%FU5>
0.0313015

>  <VolSurf_%FU6>
0.312136

>  <VolSurf_%FU7>
3.03604

>  <VolSurf_%FU8>
23.8268

>  <VolSurf_%FU9>
73.9809

>  <VolSurf_%FU10>
73.7893

>  <ID>
68

>  <MOKAID>
69

>  <Clearance Route>
metabolic

>  <PC1>
2.1414400000000002

>  <PC2>
-0.401256

$$$$
Cabazitaxel
  -OEChem-08301611272D

 62 67  0     1  0  0  0  0  0999 V2000
    1.7466    1.0119    0.0000 C   0  0  0  0  0  0  0  0  0  0  0  0
    0.8733    1.5230    0.0000 C   0  0  0  0  0  0  0  0  0  0  0  0
    0.0000    1.0119    0.0000 C   0  0  0  0  0  0  0  0  0  0  0  0
   -0.0000    0.0000    0.0000 C   0  0  2  0  0  0  0  0  0  0  0  0
    0.8733   -0.5008    0.0000 C   0  0  0  0  0  0  0  0  0  0  0  0
    1.7466    0.0000    0.0000 C   0  0  1  0  0  0  0  0  0  0  0  0
    2.7546   -0.0000    0.0000 C   0  0  2  0  0  0  0  0  0  0  0  0
    3.4702    0.7206    0.0000 C   0  0  1  0  0  0  0  0  0  0  0  0
    3.4665    1.7276    0.0000 C   0  0  2  0  0  0  0  0  0  0  0  0
    2.7189    2.3918    0.0000 C   0  0  0  0  0  0  0  0  0  0  0  0
    3.3406    4.0276    0.0000 O   0  0  0  0  0  0  0  0  0  0  0  0
    1.6457    2.3918    0.0000 C   0  0  2  0  0  0  0  0  0  0  0  0
    1.2361    3.3041    0.0000 O   0  0  0  0  0  0  0  0  0  0  0  0
    0.2412    3.4054    0.0000 C   0  0  0  0  0  0  0  0  0  0  0  0
    4.3444    2.2307    0.0000 C   0  0  2  0  0  0  0  0  0  0  0  0
    5.2184    1.7248    0.0000 C   0  0  0  0  0  0  0  0  0  0  0  0
    5.2143    0.7157    0.0000 C   0  0  2  0  0  0  0  0  0  0  0  0
    4.3392    0.2120    0.0000 C   0  0  1  0  0  0  0  0  0  0  0  0
    4.8430   -0.6632    0.0000 C   0  0  0  0  0  0  0  0  0  0  0  0
    5.7182   -0.1594    0.0000 O   0  0  0  0  0  0  0  0  0  0  0  0
    3.6296   -0.4926    0.0000 O   0  0  0  0  0  0  0  0  0  0  0  0
    3.8849   -1.4594    0.0000 C   0  0  0  0  0  0  0  0  0  0  0  0
    4.8499   -1.7217    0.0000 O   0  0  0  0  0  0  0  0  0  0  0  0
    3.1752   -2.1640    0.0000 C   0  0  0  0  0  0  0  0  0  0  0  0
    4.3482    3.9807    0.0000 O   0  0  0  0  0  0  0  0  0  0  0  0
    5.2153    4.4788    0.0000 C   0  0  0  0  0  0  0  0  0  0  0  0
    3.5693    2.7223    0.0000 C   0  0  0  0  0  0  0  0  0  0  0  0
    3.1389   -0.9232    0.0000 O   0  0  0  0  0  0  0  0  0  0  0  0
    2.5315   -1.7176    0.0000 C   0  0  0  0  0  0  0  0  0  0  0  0
    1.5398   -1.5888    0.0000 O   0  0  0  0  0  0  0  0  0  0  0  0
    3.2040   -3.3332    0.0000 C   0  0  0  0  0  0  0  0  0  0  0  0
    2.5911   -4.1300    0.0000 C   0  0  0  0  0  0  0  0  0  0  0  0
    2.9754   -5.0532    0.0000 C   0  0  0  0  0  0  0  0  0  0  0  0
    3.9663   -5.1878    0.0000 C   0  0  0  0  0  0  0  0  0  0  0  0
    4.5792   -4.3911    0.0000 C   0  0  0  0  0  0  0  0  0  0  0  0
    4.2012   -3.4598    0.0000 C   0  0  0  0  0  0  0  0  0  0  0  0
    2.0040   -0.9663    0.0000 O   0  0  0  0  0  0  0  0  0  0  0  0
   -0.8653   -0.5013    0.0000 O   0  0  0  0  0  0  0  0  0  0  0  0
   -0.8638   -1.5013    0.0000 C   0  0  0  0  0  0  0  0  0  0  0  0
    0.0029   -2.0000    0.0000 O   0  0  0  0  0  0  0  0  0  0  0  0
   -1.7291   -2.0025    0.0000 C   0  0  1  0  0  0  0  0  0  0  0  0
   -1.7277   -3.0025    0.0000 C   0  0  2  0  0  0  0  0  0  0  0  0
   -0.8609   -3.5013    0.0000 C   0  0  0  0  0  0  0  0  0  0  0  0
    0.0074   -2.9948    0.0000 C   0  0  0  0  0  0  0  0  0  0  0  0
    0.8742   -3.4935    0.0000 C   0  0  0  0  0  0  0  0  0  0  0  0
    0.8815   -4.4935    0.0000 C   0  0  0  0  0  0  0  0  0  0  0  0
    0.0132   -5.0000    0.0000 C   0  0  0  0  0  0  0  0  0  0  0  0
   -0.8624   -4.5064    0.0000 C   0  0  0  0  0  0  0  0  0  0  0  0
   -2.5930   -3.5038    0.0000 N   0  0  0  0  0  0  0  0  0  0  0  0
   -2.5915   -4.5038    0.0000 C   0  0  0  0  0  0  0  0  0  0  0  0
   -1.7247   -5.0025    0.0000 O   0  0  0  0  0  0  0  0  0  0  0  0
   -3.4568   -5.0051    0.0000 O   0  0  0  0  0  0  0  0  0  0  0  0
   -3.4553   -6.0051    0.0000 C   0  0  0  0  0  0  0  0  0  0  0  0
   -2.4553   -6.0036    0.0000 C   0  0  0  0  0  0  0  0  0  0  0  0
   -4.4553   -6.0065    0.0000 C   0  0  0  0  0  0  0  0  0  0  0  0
   -3.4539   -7.0051    0.0000 C   0  0  0  0  0  0  0  0  0  0  0  0
   -2.5959   -1.5038    0.0000 O   0  0  0  0  0  0  0  0  0  0  0  0
   -0.8675    1.5093    0.0000 C   0  0  0  0  0  0  0  0  0  0  0  0
    2.0923    1.9502    0.0000 C   0  0  0  0  0  0  0  0  0  0  0  0
    2.7311    0.8363    0.0000 C   0  0  0  0  0  0  0  0  0  0  0  0
    3.5995   -0.2710    0.0000 H   0  0  0  0  0  0  0  0  0  0  0  0
    6.1809    0.9720    0.0000 H   0  0  0  0  0  0  0  0  0  0  0  0
  1  6  1  0  0  0  0
  1  2  1  0  0  0  0
  2 12  1  0  0  0  0
  2  3  2  0  0  0  0
  3  4  1  0  0  0  0
  4  5  1  0  0  0  0
  5  6  1  0  0  0  0
  6  7  1  0  0  0  0
  7  8  1  0  0  0  0
  8 18  1  0  0  0  0
  8  9  1  0  0  0  0
  9 10  1  0  0  0  0
 10 11  2  0  0  0  0
 10 12  1  0  0  0  0
 12 13  1  1  0  0  0
 13 14  1  0  0  0  0
  9 15  1  0  0  0  0
 15 16  1  0  0  0  0
 16 17  1  0  0  0  0
 17 20  1  0  0  0  0
 17 18  1  0  0  0  0
 18 19  1  0  0  0  0
 19 20  1  0  0  0  0
 18 21  1  6  0  0  0
 21 22  1  0  0  0  0
 22 23  2  0  0  0  0
 22 24  1  0  0  0  0
 15 25  1  1  0  0  0
 25 26  1  0  0  0  0
  9 27  1  1  0  0  0
  7 28  1  6  0  0  0
 28 29  1  0  0  0  0
 29 30  2  0  0  0  0
 29 31  1  0  0  0  0
 31 36  2  0  0  0  0
 31 32  1  0  0  0  0
 32 33  2  0  0  0  0
 33 34  1  0  0  0  0
 34 35  2  0  0  0  0
 35 36  1  0  0  0  0
  6 37  1  1  0  0  0
  4 38  1  6  0  0  0
 38 39  1  0  0  0  0
 39 40  2  0  0  0  0
 39 41  1  0  0  0  0
 41 42  1  0  0  0  0
 42 43  1  0  0  0  0
 43 48  2  0  0  0  0
 43 44  1  0  0  0  0
 44 45  2  0  0  0  0
 45 46  1  0  0  0  0
 46 47  2  0  0  0  0
 47 48  1  0  0  0  0
 42 49  1  6  0  0  0
 49 50  1  0  0  0  0
 50 51  2  0  0  0  0
 50 52  1  0  0  0  0
 52 53  1  0  0  0  0
 53 54  1  0  0  0  0
 53 55  1  0  0  0  0
 53 56  1  0  0  0  0
 41 57  1  1  0  0  0
  3 58  1  0  0  0  0
  1 59  1  0  0  0  0
  1 60  1  0  0  0  0
  8 61  1  6  0  0  0
 17 62  1  6  0  0  0
M  END
>  <Name>
Cabazitaxel

>  <CAS #>
183133-96-2

>  <human Clearance (mL/min/kg)>
11.0

>  <Primary mechanism (metabolic, biliary or renal)>
metabolic

>  <seqId>
134.0

>  <Code (mechanism and clearance degree index)>
M1

>  < Five M1 and R1 test groups>
M1_3

>  <formamide>
0

>  <prodrug phosphates>
0

>  <VolSurf_V>
1585.38

>  <VolSurf_S>
922.58

>  <VolSurf_R>
1.71841

>  <VolSurf_G>
1.66206

>  <VolSurf_IW1>
0.0214727

>  <VolSurf_IW2>
0.0635339

>  <VolSurf_IW3>
0.132534

>  <VolSurf_IW4>
0.257521

>  <VolSurf_ID1>
0.0373492

>  <VolSurf_ID2>
0.0823006

>  <VolSurf_ID3>
0.114478

>  <VolSurf_ID4>
0.167499

>  <VolSurf_HL1>
6.03717

>  <VolSurf_HL2>
6.656

>  <VolSurf_A>
5.82656

>  <VolSurf_CP>
0.180845

>  <VolSurf_POL>
84.4191

>  <VolSurf_MW>
835.932

>  <VolSurf_FLEX>
2.72968

>  <VolSurf_FLEX_RB>
0.101099

>  <VolSurf_NCC>
0.0

>  <VolSurf_LOGP n-Oct>
3.969

>  <VolSurf_LOGP c-Hex>
4.093

>  <VolSurf_PSA>
212.35

>  <VolSurf_HSA>
710.23

>  <VolSurf_PSAR>
0.23017

>  <VolSurf_PHSAR>
0.298988

>  <VolSurf_LgD5>
3.969

>  <VolSurf_LgD6>
3.96899

>  <VolSurf_LgD7>
3.96891

>  <VolSurf_LgD7.5>
3.96872

>  <VolSurf_LgD8>
3.9681

>  <VolSurf_LgD9>
3.96012

>  <VolSurf_LgD10>
3.88741

>  <VolSurf_AUS7.4>
2.0

>  <VolSurf_%FU4>
100.0

>  <VolSurf_%FU5>
99.9998

>  <VolSurf_%FU6>
99.9979

>  <VolSurf_%FU7>
99.9793

>  <VolSurf_%FU8>
99.7937

>  <VolSurf_%FU9>
97.9745

>  <VolSurf_%FU10>
82.8672

>  <ID>
69

>  <MOKAID>
70

>  <Clearance Route>
possible billary

>  <PC1>
3.55384

>  <PC2>
-5.81501

$$$$
Caderofloxacin
  -OEChem-08301611272D

 29 32  0     1  0  0  0  0  0999 V2000
    2.6125    1.5125    0.0000 N   0  0  0  0  0  0  0  0  0  0  0  0
    3.4848    1.0014    0.0000 C   0  0  0  0  0  0  0  0  0  0  0  0
    3.4805   -0.0073    0.0000 C   0  0  0  0  0  0  0  0  0  0  0  0
    2.6039   -0.5053    0.0000 C   0  0  0  0  0  0  0  0  0  0  0  0
    1.7371   -0.0000    0.0000 C   0  0  0  0  0  0  0  0  0  0  0  0
    0.8707   -0.4993    0.0000 C   0  0  0  0  0  0  0  0  0  0  0  0
    0.0000    0.0000    0.0000 C   0  0  0  0  0  0  0  0  0  0  0  0
   -0.0000    1.0089    0.0000 C   0  0  0  0  0  0  0  0  0  0  0  0
    0.8707    1.5185    0.0000 C   0  0  0  0  0  0  0  0  0  0  0  0
    1.7414    1.0089    0.0000 C   0  0  0  0  0  0  0  0  0  0  0  0
    0.8707    3.2685    0.0000 O   0  0  0  0  0  0  0  0  0  0  0  0
    0.0047    3.7685    0.0000 C   0  0  0  0  0  0  0  0  0  0  0  0
   -0.8614    3.2685    0.0000 F   0  0  0  0  0  0  0  0  0  0  0  0
    0.0047    4.7685    0.0000 F   0  0  0  0  0  0  0  0  0  0  0  0
   -1.5181    1.8794    0.0000 N   0  0  3  0  0  0  0  0  0  0  0  0
   -1.5183    2.8794    0.0000 C   0  0  0  0  0  0  0  0  0  0  0  0
   -2.3903    3.3794    0.0000 C   0  0  1  0  0  0  0  0  0  0  0  0
   -3.2620    2.8793    0.0000 N   0  0  0  0  0  0  0  0  0  0  0  0
   -3.2532    1.8744    0.0000 C   0  0  0  0  0  0  0  0  0  0  0  0
   -2.3813    1.3745    0.0000 C   0  0  0  0  0  0  0  0  0  0  0  0
   -2.3903    4.3794    0.0000 C   0  0  0  0  0  0  0  0  0  0  0  0
   -0.8653   -0.5013    0.0000 F   0  0  0  0  0  0  0  0  0  0  0  0
    2.5983   -1.5053    0.0000 O   0  0  0  0  0  0  0  0  0  0  0  0
    4.3437   -0.5122    0.0000 C   0  0  0  0  0  0  0  0  0  0  0  0
    4.3381   -1.5121    0.0000 O   0  0  0  0  0  0  0  0  0  0  0  0
    5.2125   -0.0170    0.0000 O   0  0  0  0  0  0  0  0  0  0  0  0
    2.6154    2.5125    0.0000 C   0  0  0  0  0  0  0  0  0  0  0  0
    3.1179    3.3792    0.0000 C   0  0  0  0  0  0  0  0  0  0  0  0
    2.1179    3.3821    0.0000 C   0  0  0  0  0  0  0  0  0  0  0  0
  1 10  1  0  0  0  0
  1  2  1  0  0  0  0
  2  3  2  0  0  0  0
  3  4  1  0  0  0  0
  4  5  1  0  0  0  0
  5 10  2  0  0  0  0
  5  6  1  0  0  0  0
  6  7  2  0  0  0  0
  7  8  1  0  0  0  0
  8  9  2  0  0  0  0
  9 10  1  0  0  0  0
  9 11  1  0  0  0  0
 11 12  1  0  0  0  0
 12 13  1  0  0  0  0
 12 14  1  0  0  0  0
  8 15  1  0  0  0  0
 15 20  1  0  0  0  0
 15 16  1  0  0  0  0
 16 17  1  0  0  0  0
 17 18  1  0  0  0  0
 18 19  1  0  0  0  0
 19 20  1  0  0  0  0
 17 21  1  1  0  0  0
  7 22  1  0  0  0  0
  4 23  2  0  0  0  0
  3 24  1  0  0  0  0
 24 25  2  0  0  0  0
 24 26  1  0  0  0  0
  1 27  1  0  0  0  0
 27 29  1  0  0  0  0
 27 28  1  0  0  0  0
 28 29  1  0  0  0  0
M  END
>  <Name>
Caderofloxacin

>  <CAS #>
153808-85-6

>  <human Clearance (mL/min/kg)>
2.7

>  <Primary mechanism (metabolic, biliary or renal)>
renal

>  <seqId>
135.0

>  <Code (mechanism and clearance degree index)>
R1

>  < Five M1 and R1 test groups>
R1_2

>  <formamide>
0

>  <prodrug phosphates>
0

>  <VolSurf_V>
781.125

>  <VolSurf_S>
524.171

>  <VolSurf_R>
1.49021

>  <VolSurf_G>
1.44465

>  <VolSurf_IW1>
0.0939626

>  <VolSurf_IW2>
0.191929

>  <VolSurf_IW3>
0.602677

>  <VolSurf_IW4>
1.44213

>  <VolSurf_ID1>
0.0429355

>  <VolSurf_ID2>
0.0853348

>  <VolSurf_ID3>
0.114567

>  <VolSurf_ID4>
0.155654

>  <VolSurf_HL1>
8.85714

>  <VolSurf_HL2>
4.69811

>  <VolSurf_A>
2.16544

>  <VolSurf_CP>
0.282867

>  <VolSurf_POL>
38.378

>  <VolSurf_MW>
411.375

>  <VolSurf_FLEX>
0.817668

>  <VolSurf_FLEX_RB>
0.136278

>  <VolSurf_NCC>
2.0

>  <VolSurf_LOGP n-Oct>
2.515

>  <VolSurf_LOGP c-Hex>
-0.668

>  <VolSurf_PSA>
113.02

>  <VolSurf_HSA>
411.151

>  <VolSurf_PSAR>
0.215617

>  <VolSurf_PHSAR>
0.274887

>  <VolSurf_LgD5>
-1.04425

>  <VolSurf_LgD6>
-0.597695

>  <VolSurf_LgD7>
-0.306877

>  <VolSurf_LgD7.5>
-0.280288

>  <VolSurf_LgD8>
-0.29995

>  <VolSurf_LgD9>
-0.419616

>  <VolSurf_LgD10>
-0.475453

>  <VolSurf_AUS7.4>
0.0

>  <VolSurf_%FU4>
0.0

>  <VolSurf_%FU5>
0.0

>  <VolSurf_%FU6>
0.0

>  <VolSurf_%FU7>
0.0

>  <VolSurf_%FU8>
0.0

>  <VolSurf_%FU9>
0.0

>  <VolSurf_%FU10>
0.0

>  <ID>
70

>  <MOKAID>
71

>  <Clearance Route>
uncertain

>  <PC1>
-0.59205

>  <PC2>
0.280007

$$$$
Caffeine
  -OEChem-08301611272D

 14 15  0     0  0  0  0  0  0999 V2000
   -1.7355   -0.0104    0.0000 C   0  0  0  0  0  0  0  0  0  0  0  0
   -0.8680   -0.5079    0.0000 N   0  0  0  0  0  0  0  0  0  0  0  0
   -0.8680   -1.5137    0.0000 C   0  0  0  0  0  0  0  0  0  0  0  0
   -1.7333   -2.0149    0.0000 O   0  0  0  0  0  0  0  0  0  0  0  0
   -0.0000   -2.0116    0.0000 N   0  0  0  0  0  0  0  0  0  0  0  0
   -0.0006   -3.0116    0.0000 C   0  0  0  0  0  0  0  0  0  0  0  0
    0.8680   -1.5150    0.0000 C   0  0  0  0  0  0  0  0  0  0  0  0
    1.8258   -1.8263    0.0000 N   0  0  0  0  0  0  0  0  0  0  0  0
    2.4178   -1.0115    0.0000 C   0  0  0  0  0  0  0  0  0  0  0  0
    1.8258   -0.1969    0.0000 N   0  0  0  0  0  0  0  0  0  0  0  0
    2.1348    0.7541    0.0000 C   0  0  0  0  0  0  0  0  0  0  0  0
    0.8680   -0.5079    0.0000 C   0  0  0  0  0  0  0  0  0  0  0  0
    0.0000    0.0000    0.0000 C   0  0  0  0  0  0  0  0  0  0  0  0
    0.0000    1.0000    0.0000 O   0  0  0  0  0  0  0  0  0  0  0  0
  1  2  1  0  0  0  0
  2 13  1  0  0  0  0
  2  3  1  0  0  0  0
  3  4  2  0  0  0  0
  3  5  1  0  0  0  0
  5  6  1  0  0  0  0
  5  7  1  0  0  0  0
  7 12  2  0  0  0  0
  7  8  1  0  0  0  0
  8  9  2  0  0  0  0
  9 10  1  0  0  0  0
 10 11  1  0  0  0  0
 10 12  1  0  0  0  0
 12 13  1  0  0  0  0
 13 14  2  0  0  0  0
M  END
>  <Name>
Caffeine

>  <CAS #>
58-08-2

>  <human Clearance (mL/min/kg)>
1.4

>  <Primary mechanism (metabolic, biliary or renal)>
metabolic

>  <seqId>
136.0

>  <Code (mechanism and clearance degree index)>
M1

>  < Five M1 and R1 test groups>
M1_2

>  <formamide>
0

>  <prodrug phosphates>
0

>  <VolSurf_V>
418.75

>  <VolSurf_S>
307.575

>  <VolSurf_R>
1.36146

>  <VolSurf_G>
1.21128

>  <VolSurf_IW1>
0.0748062

>  <VolSurf_IW2>
0.175051

>  <VolSurf_IW3>
0.418391

>  <VolSurf_IW4>
0.534981

>  <VolSurf_ID1>
0.0642739

>  <VolSurf_ID2>
0.0947914

>  <VolSurf_ID3>
0.0903048

>  <VolSurf_ID4>
0.12724

>  <VolSurf_HL1>
1.688

>  <VolSurf_HL2>
1.04013

>  <VolSurf_A>
2.04932

>  <VolSurf_CP>
2.1164

>  <VolSurf_POL>
18.669

>  <VolSurf_MW>
194.191

>  <VolSurf_FLEX>
1.37287E-6

>  <VolSurf_FLEX_RB>
4.57624E-7

>  <VolSurf_NCC>
0.0

>  <VolSurf_LOGP n-Oct>
0.078

>  <VolSurf_LOGP c-Hex>
-2.311

>  <VolSurf_PSA>
55.8

>  <VolSurf_HSA>
251.775

>  <VolSurf_PSAR>
0.181419

>  <VolSurf_PHSAR>
0.221626

>  <VolSurf_LgD5>
0.0776739

>  <VolSurf_LgD6>
0.0779674

>  <VolSurf_LgD7>
0.0779968

>  <VolSurf_LgD7.5>
0.077999

>  <VolSurf_LgD8>
0.0779997

>  <VolSurf_LgD9>
0.078

>  <VolSurf_LgD10>
0.078

>  <VolSurf_AUS7.4>
2.0

>  <VolSurf_%FU4>
99.2543

>  <VolSurf_%FU5>
99.9249

>  <VolSurf_%FU6>
99.9925

>  <VolSurf_%FU7>
99.9993

>  <VolSurf_%FU8>
99.9999

>  <VolSurf_%FU9>
100.0

>  <VolSurf_%FU10>
100.0

>  <ID>
71

>  <MOKAID>
72

>  <Clearance Route>
metabolic

>  <PC1>
2.1561

>  <PC2>
2.87629

$$$$
Candoxatrilat
  -OEChem-08301611272D

 28 29  0     1  0  0  0  0  0999 V2000
    1.7350    2.0001    0.0000 N   0  0  0  0  0  0  0  0  0  0  0  0
    0.8675    1.5027    0.0000 C   0  0  0  0  0  0  0  0  0  0  0  0
    0.8675    0.4975    0.0000 C   0  0  0  0  0  0  0  0  0  0  0  0
    0.0000    0.0000    0.0000 C   0  0  0  0  0  0  0  0  0  0  0  0
   -0.8675    0.4975    0.0000 C   0  0  0  0  0  0  0  0  0  0  0  0
   -0.8675    1.5027    0.0000 C   0  0  0  0  0  0  0  0  0  0  0  0
    0.0000    2.0104    0.0000 C   0  0  0  0  0  0  0  0  0  0  0  0
   -1.7328   -0.0038    0.0000 C   0  0  0  0  0  0  0  0  0  0  0  0
   -2.5995    0.4950    0.0000 O   0  0  0  0  0  0  0  0  0  0  0  0
   -1.7313   -1.0038    0.0000 O   0  0  0  0  0  0  0  0  0  0  0  0
    1.7379    3.0001    0.0000 C   0  0  0  0  0  0  0  0  0  0  0  0
    2.6054    3.4976    0.0000 C   0  0  0  0  0  0  0  0  0  0  0  0
    3.3526    4.1646    0.0000 C   0  0  0  0  0  0  0  0  0  0  0  0
    4.2189    3.6623    0.0000 C   0  0  0  0  0  0  0  0  0  0  0  0
    4.0065    2.6851    0.0000 C   0  0  0  0  0  0  0  0  0  0  0  0
    3.0119    2.5790    0.0000 C   0  0  0  0  0  0  0  0  0  0  0  0
    2.0206    4.3087    0.0000 C   0  0  0  0  0  0  0  0  0  0  0  0
    2.4306    5.2208    0.0000 C   0  0  0  0  0  0  0  0  0  0  0  0
    1.8457    6.0319    0.0000 C   0  0  1  0  0  0  0  0  0  0  0  0
    2.2557    6.9440    0.0000 C   0  0  0  0  0  0  0  0  0  0  0  0
    3.2506    7.0449    0.0000 O   0  0  0  0  0  0  0  0  0  0  0  0
    3.6606    7.9570    0.0000 C   0  0  0  0  0  0  0  0  0  0  0  0
    4.6555    8.0580    0.0000 O   0  0  0  0  0  0  0  0  0  0  0  0
    5.0655    8.9701    0.0000 C   0  0  0  0  0  0  0  0  0  0  0  0
    0.8508    5.9309    0.0000 C   0  0  0  0  0  0  0  0  0  0  0  0
    0.4408    5.0189    0.0000 O   0  0  0  0  0  0  0  0  0  0  0  0
    0.2659    6.7421    0.0000 O   0  0  0  0  0  0  0  0  0  0  0  0
    0.8734    3.5027    0.0000 O   0  0  0  0  0  0  0  0  0  0  0  0
  1  2  1  0  0  0  0
  2  7  1  0  0  0  0
  2  3  1  0  0  0  0
  3  4  1  0  0  0  0
  4  5  1  0  0  0  0
  5  6  1  0  0  0  0
  6  7  1  0  0  0  0
  5  8  1  0  0  0  0
  8  9  2  0  0  0  0
  8 10  1  0  0  0  0
  1 11  1  0  0  0  0
 11 12  1  0  0  0  0
 12 16  1  0  0  0  0
 12 13  1  0  0  0  0
 13 14  1  0  0  0  0
 14 15  1  0  0  0  0
 15 16  1  0  0  0  0
 12 17  1  0  0  0  0
 17 18  1  0  0  0  0
 19 18  1  6  0  0  0
 19 20  1  0  0  0  0
 20 21  1  0  0  0  0
 21 22  1  0  0  0  0
 22 23  1  0  0  0  0
 23 24  1  0  0  0  0
 19 25  1  0  0  0  0
 25 26  2  0  0  0  0
 25 27  1  0  0  0  0
 11 28  2  0  0  0  0
M  END
>  <Name>
Candoxatrilat

>  <CAS #>
123122-54-3

>  <human Clearance (mL/min/kg)>
2.3

>  <Primary mechanism (metabolic, biliary or renal)>
renal

>  <seqId>
138.0

>  <Code (mechanism and clearance degree index)>
R1

>  < Five M1 and R1 test groups>
R1_2

>  <formamide>
0

>  <prodrug phosphates>
0

>  <VolSurf_V>
871.5

>  <VolSurf_S>
574.813

>  <VolSurf_R>
1.51615

>  <VolSurf_G>
1.48695

>  <VolSurf_IW1>
0.0830181

>  <VolSurf_IW2>
0.178485

>  <VolSurf_IW3>
0.349636

>  <VolSurf_IW4>
0.578479

>  <VolSurf_ID1>
0.0583691

>  <VolSurf_ID2>
0.146703

>  <VolSurf_ID3>
0.197148

>  <VolSurf_ID4>
0.187476

>  <VolSurf_HL1>
24.8592

>  <VolSurf_HL2>
28.0541

>  <VolSurf_A>
5.57704

>  <VolSurf_CP>
0.0454894

>  <VolSurf_POL>
38.704

>  <VolSurf_MW>
397.462

>  <VolSurf_FLEX>
3.01708

>  <VolSurf_FLEX_RB>
0.251423

>  <VolSurf_NCC>
2.0

>  <VolSurf_LOGP n-Oct>
1.634

>  <VolSurf_LOGP c-Hex>
-2.155

>  <VolSurf_PSA>
146.4

>  <VolSurf_HSA>
428.413

>  <VolSurf_PSAR>
0.254692

>  <VolSurf_PHSAR>
0.341727

>  <VolSurf_LgD5>
0.688837

>  <VolSurf_LgD6>
-1.01086

>  <VolSurf_LgD7>
-2.91294

>  <VolSurf_LgD7.5>
-3.77278

>  <VolSurf_LgD8>
-4.43424

>  <VolSurf_LgD9>
-4.97416

>  <VolSurf_LgD10>
-5.04929

>  <VolSurf_AUS7.4>
0.0

>  <VolSurf_%FU4>
70.7575

>  <VolSurf_%FU5>
11.3268

>  <VolSurf_%FU6>
0.222783

>  <VolSurf_%FU7>
0.00241325

>  <VolSurf_%FU8>
2.43298E-5

>  <VolSurf_%FU9>
2.43495E-7

>  <VolSurf_%FU10>
2.43506E-9

>  <ID>
72

>  <MOKAID>
73

>  <Clearance Route>
renal

>  <PC1>
-2.5744700000000003

>  <PC2>
-0.392844

$$$$
Captopril
  -OEChem-08301611272D

 14 14  0     1  0  0  0  0  0999 V2000
   -1.2328    2.5402    0.0000 C   0  0  0  0  0  0  0  0  0  0  0  0
   -0.3675    3.0415    0.0000 C   0  0  2  0  0  0  0  0  0  0  0  0
   -0.3690    4.0415    0.0000 C   0  0  0  0  0  0  0  0  0  0  0  0
   -1.2358    4.5401    0.0000 S   0  0  0  0  0  0  0  0  0  0  0  0
    0.4993    2.5428    0.0000 C   0  0  0  0  0  0  0  0  0  0  0  0
    1.3645    3.0441    0.0000 O   0  0  0  0  0  0  0  0  0  0  0  0
    0.5008    1.5428    0.0000 N   0  0  0  0  0  0  0  0  0  0  0  0
   -0.3065    0.9519    0.0000 C   0  0  0  0  0  0  0  0  0  0  0  0
    0.0000    0.0000    0.0000 C   0  0  0  0  0  0  0  0  0  0  0  0
    1.0015    0.0000    0.0000 C   0  0  0  0  0  0  0  0  0  0  0  0
    1.3133    0.9519    0.0000 C   0  0  1  0  0  0  0  0  0  0  0  0
    2.2648    1.2596    0.0000 C   0  0  0  0  0  0  0  0  0  0  0  0
    3.0070    0.5894    0.0000 O   0  0  0  0  0  0  0  0  0  0  0  0
    2.4741    2.2374    0.0000 O   0  0  0  0  0  0  0  0  0  0  0  0
  2  1  1  6  0  0  0
  2  3  1  0  0  0  0
  3  4  1  0  0  0  0
  2  5  1  0  0  0  0
  5  6  2  0  0  0  0
  5  7  1  0  0  0  0
  7 11  1  0  0  0  0
  7  8  1  0  0  0  0
  8  9  1  0  0  0  0
  9 10  1  0  0  0  0
 10 11  1  0  0  0  0
 11 12  1  6  0  0  0
 12 13  2  0  0  0  0
 12 14  1  0  0  0  0
M  END
>  <Name>
Captopril

>  <CAS #>
62571-86-2

>  <human Clearance (mL/min/kg)>
12.0

>  <Primary mechanism (metabolic, biliary or renal)>
renal

>  <seqId>
140.0

>  <Code (mechanism and clearance degree index)>
R1

>  < Five M1 and R1 test groups>
R1_1

>  <formamide>
0

>  <prodrug phosphates>
0

>  <VolSurf_V>
490.625

>  <VolSurf_S>
344.654

>  <VolSurf_R>
1.42353

>  <VolSurf_G>
1.22631

>  <VolSurf_IW1>
0.17796

>  <VolSurf_IW2>
0.438341

>  <VolSurf_IW3>
1.15887

>  <VolSurf_IW4>
1.61254

>  <VolSurf_ID1>
0.0858781

>  <VolSurf_ID2>
0.231688

>  <VolSurf_ID3>
0.352279

>  <VolSurf_ID4>
0.393485

>  <VolSurf_HL1>
13.3016

>  <VolSurf_HL2>
12.2564

>  <VolSurf_A>
6.4109

>  <VolSurf_CP>
0.0905826

>  <VolSurf_POL>
20.903

>  <VolSurf_MW>
216.277

>  <VolSurf_FLEX>
1.17142

>  <VolSurf_FLEX_RB>
0.195236

>  <VolSurf_NCC>
1.0

>  <VolSurf_LOGP n-Oct>
0.967

>  <VolSurf_LOGP c-Hex>
-1.848

>  <VolSurf_PSA>
105.0

>  <VolSurf_HSA>
239.654

>  <VolSurf_PSAR>
0.304654

>  <VolSurf_PHSAR>
0.438132

>  <VolSurf_LgD5>
-0.216788

>  <VolSurf_LgD6>
-1.16623

>  <VolSurf_LgD7>
-1.97499

>  <VolSurf_LgD7.5>
-2.21019

>  <VolSurf_LgD8>
-2.32845

>  <VolSurf_LgD9>
-2.47739

>  <VolSurf_LgD10>
-2.941

>  <VolSurf_AUS7.4>
0.0

>  <VolSurf_%FU4>
41.0395

>  <VolSurf_%FU5>
6.50741

>  <VolSurf_%FU6>
0.691052

>  <VolSurf_%FU7>
0.0693643

>  <VolSurf_%FU8>
0.00677183

>  <VolSurf_%FU9>
5.44655E-4

>  <VolSurf_%FU10>
1.84159E-5

>  <ID>
73

>  <MOKAID>
74

>  <Clearance Route>
uncertain

>  <PC1>
-1.3990200000000002

>  <PC2>
3.96967

$$$$
Carbenicillin
  -OEChem-08301611272D

 27 29  0     1  0  0  0  0  0999 V2000
    3.2824    0.1689    0.0000 C   0  0  0  0  0  0  0  0  0  0  0  0
    2.5392   -0.5002    0.0000 C   0  0  0  0  0  0  0  0  0  0  0  0
    3.2822   -1.1694    0.0000 C   0  0  0  0  0  0  0  0  0  0  0  0
    1.9514    0.3089    0.0000 S   0  0  0  0  0  0  0  0  0  0  0  0
    1.0001    0.0000    0.0000 C   0  0  2  0  0  0  0  0  0  0  0  0
    0.0000    0.0000    0.0000 C   0  0  2  0  0  0  0  0  0  0  0  0
   -0.7071    0.7071    0.0000 N   0  0  0  0  0  0  0  0  0  0  0  0
   -1.6730    0.4483    0.0000 C   0  0  0  0  0  0  0  0  0  0  0  0
   -1.9319   -0.5176    0.0000 O   0  0  0  0  0  0  0  0  0  0  0  0
   -2.3801    1.1554    0.0000 C   0  0  3  0  0  0  0  0  0  0  0  0
   -3.3461    0.8966    0.0000 C   0  0  0  0  0  0  0  0  0  0  0  0
   -4.0532    1.6037    0.0000 O   0  0  0  0  0  0  0  0  0  0  0  0
   -3.6049   -0.0693    0.0000 O   0  0  0  0  0  0  0  0  0  0  0  0
   -2.1213    2.1213    0.0000 C   0  0  0  0  0  0  0  0  0  0  0  0
   -2.8342    2.8300    0.0000 C   0  0  0  0  0  0  0  0  0  0  0  0
   -2.5754    3.7960    0.0000 C   0  0  0  0  0  0  0  0  0  0  0  0
   -1.6110    4.0604    0.0000 C   0  0  0  0  0  0  0  0  0  0  0  0
   -0.8981    3.3518    0.0000 C   0  0  0  0  0  0  0  0  0  0  0  0
   -1.1497    2.3786    0.0000 C   0  0  0  0  0  0  0  0  0  0  0  0
   -0.0000   -1.0001    0.0000 C   0  0  0  0  0  0  0  0  0  0  0  0
   -0.7071   -1.7072    0.0000 O   0  0  0  0  0  0  0  0  0  0  0  0
    1.0000   -1.0001    0.0000 N   0  0  0  0  0  0  0  0  0  0  0  0
    1.9511   -1.3093    0.0000 C   0  0  1  0  0  0  0  0  0  0  0  0
    2.2599   -2.2604    0.0000 C   0  0  0  0  0  0  0  0  0  0  0  0
    1.5907   -3.0034    0.0000 O   0  0  0  0  0  0  0  0  0  0  0  0
    3.2381   -2.4685    0.0000 O   0  0  0  0  0  0  0  0  0  0  0  0
    0.8438    0.9877    0.0000 H   0  0  0  0  0  0  0  0  0  0  0  0
  1  2  1  0  0  0  0
  2 23  1  0  0  0  0
  2  3  1  0  0  0  0
  2  4  1  0  0  0  0
  4  5  1  0  0  0  0
  5 22  1  0  0  0  0
  5  6  1  0  0  0  0
  6  7  1  1  0  0  0
  7  8  1  0  0  0  0
  8  9  2  0  0  0  0
  8 10  1  0  0  0  0
 10 11  1  0  0  0  0
 11 12  2  0  0  0  0
 11 13  1  0  0  0  0
 10 14  1  0  0  0  0
 14 19  2  0  0  0  0
 14 15  1  0  0  0  0
 15 16  2  0  0  0  0
 16 17  1  0  0  0  0
 17 18  2  0  0  0  0
 18 19  1  0  0  0  0
  6 20  1  0  0  0  0
 20 21  2  0  0  0  0
 20 22  1  0  0  0  0
 22 23  1  0  0  0  0
 23 24  1  6  0  0  0
 24 25  2  0  0  0  0
 24 26  1  0  0  0  0
  5 27  1  6  0  0  0
M  END
>  <Name>
Carbenicillin

>  <CAS #>
4697-36-3

>  <human Clearance (mL/min/kg)>
1.9

>  <Primary mechanism (metabolic, biliary or renal)>
renal

>  <seqId>
141.0

>  <Code (mechanism and clearance degree index)>
R1

>  < Five M1 and R1 test groups>
R1_1

>  <formamide>
0

>  <prodrug phosphates>
0

>  <VolSurf_V>
758.375

>  <VolSurf_S>
518.34

>  <VolSurf_R>
1.46308

>  <VolSurf_G>
1.46323

>  <VolSurf_IW1>
0.117973

>  <VolSurf_IW2>
0.243481

>  <VolSurf_IW3>
0.477936

>  <VolSurf_IW4>
0.664488

>  <VolSurf_ID1>
0.0715577

>  <VolSurf_ID2>
0.151557

>  <VolSurf_ID3>
0.214655

>  <VolSurf_ID4>
0.351704

>  <VolSurf_HL1>
23.1392

>  <VolSurf_HL2>
26.3659

>  <VolSurf_A>
5.84142

>  <VolSurf_CP>
0.0531997

>  <VolSurf_POL>
34.547

>  <VolSurf_MW>
376.384

>  <VolSurf_FLEX>
1.53295

>  <VolSurf_FLEX_RB>
0.218993

>  <VolSurf_NCC>
2.0

>  <VolSurf_LOGP n-Oct>
1.201

>  <VolSurf_LOGP c-Hex>
-3.813

>  <VolSurf_PSA>
153.19

>  <VolSurf_HSA>
365.15

>  <VolSurf_PSAR>
0.295539

>  <VolSurf_PHSAR>
0.419526

>  <VolSurf_LgD5>
-2.90675

>  <VolSurf_LgD6>
-4.56157

>  <VolSurf_LgD7>
-5.33368

>  <VolSurf_LgD7.5>
-5.43773

>  <VolSurf_LgD8>
-5.47375

>  <VolSurf_LgD9>
-5.48925

>  <VolSurf_LgD10>
-5.4908

>  <VolSurf_AUS7.4>
0.0

>  <VolSurf_%FU4>
0.598158

>  <VolSurf_%FU5>
0.00698072

>  <VolSurf_%FU6>
7.09482E-5

>  <VolSurf_%FU7>
7.10639E-7

>  <VolSurf_%FU8>
7.10754E-9

>  <VolSurf_%FU9>
7.10762E-11

>  <VolSurf_%FU10>
7.10727E-13

>  <ID>
74

>  <MOKAID>
75

>  <Clearance Route>
renal

>  <PC1>
-3.9585800000000004

>  <PC2>
1.55407

$$$$
Carfilzomib
  -OEChem-08301611272D

 52 55  0     1  0  0  0  0  0999 V2000
   -4.1060    3.7681    0.0000 C   0  0  0  0  0  0  0  0  0  0  0  0
   -3.1196    3.9438    0.0000 O   0  0  0  0  0  0  0  0  0  0  0  0
   -3.4626    3.0025    0.0000 C   0  0  1  0  0  0  0  0  0  0  0  0
   -2.5966    2.5025    0.0000 C   0  0  0  0  0  0  0  0  0  0  0  0
   -2.5966    1.5025    0.0000 C   0  0  1  0  0  0  0  0  0  0  0  0
   -3.4626    1.0025    0.0000 N   0  0  0  0  0  0  0  0  0  0  0  0
   -3.4626    0.0025    0.0000 C   0  0  0  0  0  0  0  0  0  0  0  0
   -4.3287   -0.4975    0.0000 C   0  0  1  0  0  0  0  0  0  0  0  0
   -4.3287   -1.4975    0.0000 N   0  0  0  0  0  0  0  0  0  0  0  0
   -3.4626   -1.9975    0.0000 C   0  0  0  0  0  0  0  0  0  0  0  0
   -3.4626   -2.9975    0.0000 C   0  0  1  0  0  0  0  0  0  0  0  0
   -2.5966   -3.4975    0.0000 N   0  0  0  0  0  0  0  0  0  0  0  0
   -1.7306   -2.9975    0.0000 C   0  0  0  0  0  0  0  0  0  0  0  0
   -0.8646   -3.4975    0.0000 C   0  0  1  0  0  0  0  0  0  0  0  0
    0.0015   -2.9975    0.0000 N   0  0  0  0  0  0  0  0  0  0  0  0
    0.0015   -1.9975    0.0000 C   0  0  0  0  0  0  0  0  0  0  0  0
   -0.8646   -1.4975    0.0000 O   0  0  0  0  0  0  0  0  0  0  0  0
    0.8675   -1.4975    0.0000 C   0  0  0  0  0  0  0  0  0  0  0  0
    0.8675   -0.4975    0.0000 N   0  0  0  0  0  0  0  0  0  0  0  0
    0.0000    0.0000    0.0000 C   0  0  0  0  0  0  0  0  0  0  0  0
   -0.0000    1.0052    0.0000 C   0  0  0  0  0  0  0  0  0  0  0  0
    0.8675    1.5129    0.0000 O   0  0  0  0  0  0  0  0  0  0  0  0
    1.7350    1.0052    0.0000 C   0  0  0  0  0  0  0  0  0  0  0  0
    1.7350    0.0000    0.0000 C   0  0  0  0  0  0  0  0  0  0  0  0
   -0.8646   -4.4975    0.0000 C   0  0  0  0  0  0  0  0  0  0  0  0
    0.0015   -4.9975    0.0000 C   0  0  0  0  0  0  0  0  0  0  0  0
    0.0015   -5.9975    0.0000 C   0  0  0  0  0  0  0  0  0  0  0  0
    0.8735   -6.4975    0.0000 C   0  0  0  0  0  0  0  0  0  0  0  0
    0.8735   -7.4976    0.0000 C   0  0  0  0  0  0  0  0  0  0  0  0
    0.0104   -8.0026    0.0000 C   0  0  0  0  0  0  0  0  0  0  0  0
   -0.8616   -7.5026    0.0000 C   0  0  0  0  0  0  0  0  0  0  0  0
   -0.8705   -6.4975    0.0000 C   0  0  0  0  0  0  0  0  0  0  0  0
   -1.7306   -1.9975    0.0000 O   0  0  0  0  0  0  0  0  0  0  0  0
   -4.3287   -3.4975    0.0000 C   0  0  0  0  0  0  0  0  0  0  0  0
   -4.3287   -4.4975    0.0000 C   0  0  0  0  0  0  0  0  0  0  0  0
   -3.4626   -4.9975    0.0000 C   0  0  0  0  0  0  0  0  0  0  0  0
   -5.1947   -4.9975    0.0000 C   0  0  0  0  0  0  0  0  0  0  0  0
   -2.5966   -1.4975    0.0000 O   0  0  0  0  0  0  0  0  0  0  0  0
   -5.1947    0.0025    0.0000 C   0  0  0  0  0  0  0  0  0  0  0  0
   -6.0607   -0.4975    0.0000 C   0  0  0  0  0  0  0  0  0  0  0  0
   -6.0577   -1.5027    0.0000 C   0  0  0  0  0  0  0  0  0  0  0  0
   -6.9238   -2.0028    0.0000 C   0  0  0  0  0  0  0  0  0  0  0  0
   -7.7927   -1.5078    0.0000 C   0  0  0  0  0  0  0  0  0  0  0  0
   -7.7957   -0.5026    0.0000 C   0  0  0  0  0  0  0  0  0  0  0  0
   -6.9297    0.0076    0.0000 C   0  0  0  0  0  0  0  0  0  0  0  0
   -2.5966   -0.4975    0.0000 O   0  0  0  0  0  0  0  0  0  0  0  0
   -1.7306    1.0025    0.0000 C   0  0  0  0  0  0  0  0  0  0  0  0
   -1.7306    0.0025    0.0000 C   0  0  0  0  0  0  0  0  0  0  0  0
   -2.5966   -0.4975    0.0000 C   0  0  0  0  0  0  0  0  0  0  0  0
   -0.8646   -0.4975    0.0000 C   0  0  0  0  0  0  0  0  0  0  0  0
   -1.7306    3.0025    0.0000 O   0  0  0  0  0  0  0  0  0  0  0  0
   -4.1051    2.2362    0.0000 C   0  0  0  0  0  0  0  0  0  0  0  0
  1  3  1  0  0  0  0
  1  2  1  0  0  0  0
  2  3  1  0  0  0  0
  3  4  1  1  0  0  0
  5  4  1  6  0  0  0
  5  6  1  0  0  0  0
  6  7  1  0  0  0  0
  8  7  1  1  0  0  0
  8  9  1  0  0  0  0
  9 10  1  0  0  0  0
 11 10  1  1  0  0  0
 11 12  1  0  0  0  0
 12 13  1  0  0  0  0
 14 13  1  1  0  0  0
 14 15  1  0  0  0  0
 15 16  1  0  0  0  0
 16 17  2  0  0  0  0
 16 18  1  0  0  0  0
 18 19  1  0  0  0  0
 19 24  1  0  0  0  0
 19 20  1  0  0  0  0
 20 21  1  0  0  0  0
 21 22  1  0  0  0  0
 22 23  1  0  0  0  0
 23 24  1  0  0  0  0
 14 25  1  0  0  0  0
 25 26  1  0  0  0  0
 26 27  1  0  0  0  0
 27 32  2  0  0  0  0
 27 28  1  0  0  0  0
 28 29  2  0  0  0  0
 29 30  1  0  0  0  0
 30 31  2  0  0  0  0
 31 32  1  0  0  0  0
 13 33  2  0  0  0  0
 11 34  1  0  0  0  0
 34 35  1  0  0  0  0
 35 36  1  0  0  0  0
 35 37  1  0  0  0  0
 10 38  2  0  0  0  0
  8 39  1  0  0  0  0
 39 40  1  0  0  0  0
 40 45  2  0  0  0  0
 40 41  1  0  0  0  0
 41 42  2  0  0  0  0
 42 43  1  0  0  0  0
 43 44  2  0  0  0  0
 44 45  1  0  0  0  0
  7 46  2  0  0  0  0
  5 47  1  0  0  0  0
 47 48  1  0  0  0  0
 48 49  1  0  0  0  0
 48 50  1  0  0  0  0
  4 51  2  0  0  0  0
  3 52  1  6  0  0  0
M  END
>  <Name>
Carfilzomib

>  <CAS #>
868540-17-4

>  <human Clearance (mL/min/kg)>
39.5

>  <Primary mechanism (metabolic, biliary or renal)>
metabolic

>  <seqId>
142.0

>  <Code (mechanism and clearance degree index)>
M1

>  < Five M1 and R1 test groups>
M1_2

>  <formamide>
0

>  <prodrug phosphates>
0

>  <VolSurf_V>
1537.25

>  <VolSurf_S>
906.933

>  <VolSurf_R>
1.695

>  <VolSurf_G>
1.67068

>  <VolSurf_IW1>
0.00716321

>  <VolSurf_IW2>
0.0266178

>  <VolSurf_IW3>
0.0894198

>  <VolSurf_IW4>
0.242539

>  <VolSurf_ID1>
0.0129982

>  <VolSurf_ID2>
0.0448483

>  <VolSurf_ID3>
0.0775438

>  <VolSurf_ID4>
0.103608

>  <VolSurf_HL1>
3.77436

>  <VolSurf_HL2>
4.16751

>  <VolSurf_A>
2.6927

>  <VolSurf_CP>
0.571108

>  <VolSurf_POL>
77.4341

>  <VolSurf_MW>
719.91

>  <VolSurf_FLEX>
4.86556

>  <VolSurf_FLEX_RB>
0.17377

>  <VolSurf_NCC>
0.0

>  <VolSurf_LOGP n-Oct>
4.951

>  <VolSurf_LOGP c-Hex>
-0.332

>  <VolSurf_PSA>
161.77

>  <VolSurf_HSA>
745.163

>  <VolSurf_PSAR>
0.17837

>  <VolSurf_PHSAR>
0.217093

>  <VolSurf_LgD5>
4.58144

>  <VolSurf_LgD6>
4.89622

>  <VolSurf_LgD7>
4.9452

>  <VolSurf_LgD7.5>
4.94916

>  <VolSurf_LgD8>
4.95042

>  <VolSurf_LgD9>
4.95093

>  <VolSurf_LgD10>
4.95084

>  <VolSurf_AUS7.4>
2.0

>  <VolSurf_%FU4>
6.91284

>  <VolSurf_%FU5>
42.6151

>  <VolSurf_%FU6>
88.1322

>  <VolSurf_%FU7>
98.6713

>  <VolSurf_%FU8>
99.8652

>  <VolSurf_%FU9>
99.9831

>  <VolSurf_%FU10>
99.9639

>  <ID>
75

>  <MOKAID>
76

>  <Clearance Route>
possible billary

>  <PC1>
3.8757699999999997

>  <PC2>
-6.5636399999999995

$$$$
Carnitine_L
  -OEChem-08301611272D

 11 10  0     1  0  0  0  0  0999 V2000
    0.0000    0.0000    0.0000 C   0  0  0  0  0  0  0  0  0  0  0  0
    1.0000    0.0000    0.0000 N   0  3  0  0  0  0  0  0  0  0  0  0
    1.0000    1.0000    0.0000 C   0  0  0  0  0  0  0  0  0  0  0  0
    1.0000   -1.0000    0.0000 C   0  0  0  0  0  0  0  0  0  0  0  0
    2.0000   -0.0000    0.0000 C   0  0  0  0  0  0  0  0  0  0  0  0
   -0.5000   -0.8660    0.0000 C   0  0  1  0  0  0  0  0  0  0  0  0
   -1.5000   -0.8660    0.0000 C   0  0  0  0  0  0  0  0  0  0  0  0
   -2.0000   -1.7321    0.0000 C   0  0  0  0  0  0  0  0  0  0  0  0
   -1.5000   -2.5981    0.0000 O   0  0  0  0  0  0  0  0  0  0  0  0
   -3.0000   -1.7321    0.0000 O   0  5  0  0  0  0  0  0  0  0  0  0
    0.0000   -1.7321    0.0000 O   0  0  0  0  0  0  0  0  0  0  0  0
  1  2  1  0  0  0  0
  2  3  1  0  0  0  0
  2  4  1  0  0  0  0
  2  5  1  0  0  0  0
  1  6  1  0  0  0  0
  6  7  1  0  0  0  0
  7  8  1  0  0  0  0
  8  9  2  0  0  0  0
  8 10  1  0  0  0  0
  6 11  1  6  0  0  0
M  CHG  2   2   1  10  -1
M  END
>  <Name>
Carnitine_L

>  <CAS #>
406-76-8

>  <human Clearance (mL/min/kg)>
1.6

>  <Primary mechanism (metabolic, biliary or renal)>
renal

>  <seqId>
144.0

>  <Code (mechanism and clearance degree index)>
R1

>  < Five M1 and R1 test groups>
R1_4

>  <formamide>
0

>  <prodrug phosphates>
0

>  <VolSurf_V>
414.625

>  <VolSurf_S>
313.259

>  <VolSurf_R>
1.32359

>  <VolSurf_G>
1.2574

>  <VolSurf_IW1>
0.304207

>  <VolSurf_IW2>
0.670454

>  <VolSurf_IW3>
1.2419

>  <VolSurf_IW4>
1.82266

>  <VolSurf_ID1>
0.0780667

>  <VolSurf_ID2>
0.0

>  <VolSurf_ID3>
0.0

>  <VolSurf_ID4>
0.0

>  <VolSurf_HL1>
216.5

>  <VolSurf_HL2>
119.25

>  <VolSurf_A>
0.0

>  <VolSurf_CP>
0.0

>  <VolSurf_POL>
15.546

>  <VolSurf_MW>
161.199

>  <VolSurf_FLEX>
1.1143

>  <VolSurf_FLEX_RB>
0.139288

>  <VolSurf_NCC>
2.0

>  <VolSurf_LOGP n-Oct>
-4.639

>  <VolSurf_LOGP c-Hex>
-2.918

>  <VolSurf_PSA>
73.32

>  <VolSurf_HSA>
239.939

>  <VolSurf_PSAR>
0.234056

>  <VolSurf_PHSAR>
0.305578

>  <VolSurf_LgD5>
-4.0404

>  <VolSurf_LgD6>
-4.02033

>  <VolSurf_LgD7>
-4.01823

>  <VolSurf_LgD7.5>
-4.01807

>  <VolSurf_LgD8>
-4.01802

>  <VolSurf_LgD9>
-4.018

>  <VolSurf_LgD10>
-4.018

>  <VolSurf_AUS7.4>
0.0

>  <VolSurf_%FU4>
0.0

>  <VolSurf_%FU5>
0.0

>  <VolSurf_%FU6>
0.0

>  <VolSurf_%FU7>
0.0

>  <VolSurf_%FU8>
0.0

>  <VolSurf_%FU9>
0.0

>  <VolSurf_%FU10>
0.0

>  <ID>
76

>  <MOKAID>
77

>  <Clearance Route>
renal

>  <PC1>
-3.44527

>  <PC2>
5.43971

$$$$
Carteolol
  -OEChem-08301611272D

 21 22  0     1  0  0  0  0  0999 V2000
    1.7371    0.0000    0.0000 C   0  0  0  0  0  0  0  0  0  0  0  0
    1.7414    1.0089    0.0000 C   0  0  0  0  0  0  0  0  0  0  0  0
    0.8707    1.5185    0.0000 C   0  0  0  0  0  0  0  0  0  0  0  0
    0.0000    1.0089    0.0000 C   0  0  0  0  0  0  0  0  0  0  0  0
    0.0000    0.0000    0.0000 C   0  0  0  0  0  0  0  0  0  0  0  0
    0.8707   -0.4993    0.0000 C   0  0  0  0  0  0  0  0  0  0  0  0
    0.8718   -1.4993    0.0000 O   0  0  0  0  0  0  0  0  0  0  0  0
    1.7383   -1.9984    0.0000 C   0  0  0  0  0  0  0  0  0  0  0  0
    1.7394   -2.9984    0.0000 C   0  0  1  0  0  0  0  0  0  0  0  0
    2.6060   -3.4974    0.0000 C   0  0  0  0  0  0  0  0  0  0  0  0
    2.6070   -4.4974    0.0000 N   0  0  0  0  0  0  0  0  0  0  0  0
    3.4736   -4.9965    0.0000 C   0  0  0  0  0  0  0  0  0  0  0  0
    3.9727   -4.1300    0.0000 C   0  0  0  0  0  0  0  0  0  0  0  0
    2.9745   -5.8631    0.0000 C   0  0  0  0  0  0  0  0  0  0  0  0
    4.3401   -5.4956    0.0000 C   0  0  0  0  0  0  0  0  0  0  0  0
    0.8739   -3.4993    0.0000 O   0  0  0  0  0  0  0  0  0  0  0  0
    2.6125    1.5125    0.0000 N   0  0  0  0  0  0  0  0  0  0  0  0
    3.4848    1.0014    0.0000 C   0  0  0  0  0  0  0  0  0  0  0  0
    4.3535    1.4968    0.0000 O   0  0  0  0  0  0  0  0  0  0  0  0
    3.4805   -0.0073    0.0000 C   0  0  0  0  0  0  0  0  0  0  0  0
    2.6039   -0.5053    0.0000 C   0  0  0  0  0  0  0  0  0  0  0  0
  1  6  2  0  0  0  0
  1 21  1  0  0  0  0
  1  2  1  0  0  0  0
  2  3  2  0  0  0  0
  3  4  1  0  0  0  0
  4  5  2  0  0  0  0
  5  6  1  0  0  0  0
  6  7  1  0  0  0  0
  7  8  1  0  0  0  0
  8  9  1  0  0  0  0
  9 10  1  0  0  0  0
 10 11  1  0  0  0  0
 11 12  1  0  0  0  0
 12 13  1  0  0  0  0
 12 14  1  0  0  0  0
 12 15  1  0  0  0  0
  9 16  1  1  0  0  0
  2 17  1  0  0  0  0
 17 18  1  0  0  0  0
 18 19  2  0  0  0  0
 18 20  1  0  0  0  0
 20 21  1  0  0  0  0
M  END
>  <Name>
Carteolol

>  <CAS #>
781-06-7

>  <human Clearance (mL/min/kg)>
10.1

>  <Primary mechanism (metabolic, biliary or renal)>
renal

>  <seqId>
145.0

>  <Code (mechanism and clearance degree index)>
R1

>  < Five M1 and R1 test groups>
R1_3

>  <formamide>
0

>  <prodrug phosphates>
0

>  <VolSurf_V>
702.125

>  <VolSurf_S>
488.858

>  <VolSurf_R>
1.43626

>  <VolSurf_G>
1.44755

>  <VolSurf_IW1>
0.088917

>  <VolSurf_IW2>
0.226235

>  <VolSurf_IW3>
0.444266

>  <VolSurf_IW4>
0.655175

>  <VolSurf_ID1>
0.00828741

>  <VolSurf_ID2>
0.130752

>  <VolSurf_ID3>
0.26101

>  <VolSurf_ID4>
0.306177

>  <VolSurf_HL1>
3.24597

>  <VolSurf_HL2>
3.25424

>  <VolSurf_A>
0.764497

>  <VolSurf_CP>
0.401459

>  <VolSurf_POL>
34.83

>  <VolSurf_MW>
293.381

>  <VolSurf_FLEX>
1.81763

>  <VolSurf_FLEX_RB>
0.181763

>  <VolSurf_NCC>
1.0

>  <VolSurf_LOGP n-Oct>
1.314

>  <VolSurf_LOGP c-Hex>
-0.277

>  <VolSurf_PSA>
84.34

>  <VolSurf_HSA>
404.518

>  <VolSurf_PSAR>
0.172525

>  <VolSurf_PHSAR>
0.208495

>  <VolSurf_LgD5>
-2.12513

>  <VolSurf_LgD6>
-1.78738

>  <VolSurf_LgD7>
-0.982554

>  <VolSurf_LgD7.5>
-0.505886

>  <VolSurf_LgD8>
-0.0257458

>  <VolSurf_LgD9>
0.822785

>  <VolSurf_LgD10>
1.23119

>  <VolSurf_AUS7.4>
0.27449

>  <VolSurf_%FU4>
4.7596E-4

>  <VolSurf_%FU5>
0.00475939

>  <VolSurf_%FU6>
0.0475736

>  <VolSurf_%FU7>
0.473707

>  <VolSurf_%FU8>
4.54337

>  <VolSurf_%FU9>
32.2475

>  <VolSurf_%FU10>
82.6341

>  <ID>
77

>  <MOKAID>
78

>  <Clearance Route>
uncertain

>  <PC1>
-0.0280563

>  <PC2>
0.809491

$$$$
Carumonam
  -OEChem-08301611272D

 30 31  0     1  0  0  0  0  0999 V2000
   -5.9843   -4.8328    0.0000 N   0  0  0  0  0  0  0  0  0  0  0  0
   -5.0702   -4.4273    0.0000 C   0  0  0  0  0  0  0  0  0  0  0  0
   -4.2619   -5.0162    0.0000 O   0  0  0  0  0  0  0  0  0  0  0  0
   -4.9643   -3.4329    0.0000 O   0  0  0  0  0  0  0  0  0  0  0  0
   -4.0502   -3.0274    0.0000 C   0  0  0  0  0  0  0  0  0  0  0  0
   -3.9444   -2.0330    0.0000 C   0  0  2  0  0  0  0  0  0  0  0  0
   -3.1665   -1.4048    0.0000 C   0  0  2  0  0  0  0  0  0  0  0  0
   -2.1721   -1.5106    0.0000 N   0  0  0  0  0  0  0  0  0  0  0  0
   -1.5832   -0.7024    0.0000 C   0  0  0  0  0  0  0  0  0  0  0  0
   -1.9888    0.2117    0.0000 O   0  0  0  0  0  0  0  0  0  0  0  0
   -0.5889   -0.8082    0.0000 C   0  0  0  0  0  0  0  0  0  0  0  0
   -0.1833   -1.7223    0.0000 N   0  0  0  0  0  0  0  0  0  0  0  0
   -0.7722   -2.5306    0.0000 O   0  0  0  0  0  0  0  0  0  0  0  0
   -0.3667   -3.4446    0.0000 C   0  0  0  0  0  0  0  0  0  0  0  0
   -0.9555   -4.2529    0.0000 C   0  0  0  0  0  0  0  0  0  0  0  0
   -1.9499   -4.1470    0.0000 O   0  0  0  0  0  0  0  0  0  0  0  0
   -0.5500   -5.1670    0.0000 O   0  0  0  0  0  0  0  0  0  0  0  0
    0.0000    0.0000    0.0000 C   0  0  0  0  0  0  0  0  0  0  0  0
   -0.3065    0.9519    0.0000 C   0  0  0  0  0  0  0  0  0  0  0  0
    0.5007    1.5426    0.0000 S   0  0  0  0  0  0  0  0  0  0  0  0
    1.3131    0.9519    0.0000 C   0  0  0  0  0  0  0  0  0  0  0  0
    2.2646    1.2597    0.0000 N   0  0  0  0  0  0  0  0  0  0  0  0
    1.0014    0.0000    0.0000 N   0  0  0  0  0  0  0  0  0  0  0  0
   -3.7947   -0.6269    0.0000 C   0  0  0  0  0  0  0  0  0  0  0  0
   -3.6889    0.3675    0.0000 O   0  0  0  0  0  0  0  0  0  0  0  0
   -4.5726   -1.2551    0.0000 N   0  0  0  0  0  0  0  0  0  0  0  0
   -5.5670   -1.1492    0.0000 S   0  0  0  0  0  0  0  0  0  0  0  0
   -5.6729   -2.1436    0.0000 O   0  0  0  0  0  0  0  0  0  0  0  0
   -5.4612   -0.1549    0.0000 O   0  0  0  0  0  0  0  0  0  0  0  0
   -6.5614   -1.0434    0.0000 O   0  0  0  0  0  0  0  0  0  0  0  0
  1  2  1  0  0  0  0
  2  3  2  0  0  0  0
  2  4  1  0  0  0  0
  4  5  1  0  0  0  0
  6  5  1  1  0  0  0
  6 26  1  0  0  0  0
  6  7  1  0  0  0  0
  7  8  1  1  0  0  0
  8  9  1  0  0  0  0
  9 10  2  0  0  0  0
  9 11  1  0  0  0  0
 11 12  2  0  0  0  0
 12 13  1  0  0  0  0
 13 14  1  0  0  0  0
 14 15  1  0  0  0  0
 15 16  2  0  0  0  0
 15 17  1  0  0  0  0
 11 18  1  0  0  0  0
 18 23  1  0  0  0  0
 18 19  2  0  0  0  0
 19 20  1  0  0  0  0
 20 21  1  0  0  0  0
 21 22  1  0  0  0  0
 21 23  2  0  0  0  0
  7 24  1  0  0  0  0
 24 25  2  0  0  0  0
 24 26  1  0  0  0  0
 26 27  1  0  0  0  0
 27 28  2  0  0  0  0
 27 29  2  0  0  0  0
 27 30  1  0  0  0  0
M  END
>  <Name>
Carumonam

>  <CAS #>
87638-04-8

>  <human Clearance (mL/min/kg)>
1.5

>  <Primary mechanism (metabolic, biliary or renal)>
renal

>  <seqId>
146.0

>  <Code (mechanism and clearance degree index)>
R1

>  < Five M1 and R1 test groups>
R1_1

>  <formamide>
0

>  <prodrug phosphates>
0

>  <VolSurf_V>
794.75

>  <VolSurf_S>
545.685

>  <VolSurf_R>
1.45643

>  <VolSurf_G>
1.50819

>  <VolSurf_IW1>
0.0343863

>  <VolSurf_IW2>
0.0661764

>  <VolSurf_IW3>
0.18794

>  <VolSurf_IW4>
0.365038

>  <VolSurf_ID1>
0.0967381

>  <VolSurf_ID2>
0.187066

>  <VolSurf_ID3>
0.264251

>  <VolSurf_ID4>
0.314912

>  <VolSurf_HL1>
17.9695

>  <VolSurf_HL2>
14.5949

>  <VolSurf_A>
5.39197

>  <VolSurf_CP>
0.0658452

>  <VolSurf_POL>
36.829

>  <VolSurf_MW>
464.388

>  <VolSurf_FLEX>
2.54136

>  <VolSurf_FLEX_RB>
0.21178

>  <VolSurf_NCC>
2.0

>  <VolSurf_LOGP n-Oct>
-2.798

>  <VolSurf_LOGP c-Hex>
-9.0

>  <VolSurf_PSA>
281.69

>  <VolSurf_HSA>
263.995

>  <VolSurf_PSAR>
0.516214

>  <VolSurf_PHSAR>
1.06703

>  <VolSurf_LgD5>
-8.03385

>  <VolSurf_LgD6>
-8.04844

>  <VolSurf_LgD7>
-8.04806

>  <VolSurf_LgD7.5>
-8.04802

>  <VolSurf_LgD8>
-8.04801

>  <VolSurf_LgD9>
-8.04801

>  <VolSurf_LgD10>
-8.04811

>  <VolSurf_AUS7.4>
0.0

>  <VolSurf_%FU4>
0.0

>  <VolSurf_%FU5>
0.0

>  <VolSurf_%FU6>
0.0

>  <VolSurf_%FU7>
0.0

>  <VolSurf_%FU8>
0.0

>  <VolSurf_%FU9>
0.0

>  <VolSurf_%FU10>
0.0

>  <ID>
78

>  <MOKAID>
79

>  <Clearance Route>
renal

>  <PC1>
-8.372539999999999

>  <PC2>
1.10709

$$$$
Carvedilol
  -OEChem-08301611272D

 30 33  0     1  0  0  0  0  0999 V2000
    2.0588  -10.1975    0.0000 C   0  0  0  0  0  0  0  0  0  0  0  0
    1.3954   -9.4492    0.0000 O   0  0  0  0  0  0  0  0  0  0  0  0
    0.4157   -9.6496    0.0000 C   0  0  0  0  0  0  0  0  0  0  0  0
    0.0980  -10.5978    0.0000 C   0  0  0  0  0  0  0  0  0  0  0  0
   -0.8809  -10.8024    0.0000 C   0  0  0  0  0  0  0  0  0  0  0  0
   -1.5488  -10.0512    0.0000 C   0  0  0  0  0  0  0  0  0  0  0  0
   -1.2379   -9.0954    0.0000 C   0  0  0  0  0  0  0  0  0  0  0  0
   -0.2522   -8.8984    0.0000 C   0  0  0  0  0  0  0  0  0  0  0  0
    0.0656   -7.9502    0.0000 O   0  0  0  0  0  0  0  0  0  0  0  0
   -0.5967   -7.2009    0.0000 C   0  0  0  0  0  0  0  0  0  0  0  0
   -0.2789   -6.2527    0.0000 C   0  0  0  0  0  0  0  0  0  0  0  0
   -0.9412   -5.5035    0.0000 N   0  0  0  0  0  0  0  0  0  0  0  0
   -0.6234   -4.5553    0.0000 C   0  0  0  0  0  0  0  0  0  0  0  0
   -1.2857   -3.8060    0.0000 C   0  0  3  0  0  0  0  0  0  0  0  0
   -2.2657   -4.0049    0.0000 O   0  0  0  0  0  0  0  0  0  0  0  0
   -0.9679   -2.8578    0.0000 C   0  0  0  0  0  0  0  0  0  0  0  0
   -1.6302   -2.1086    0.0000 O   0  0  0  0  0  0  0  0  0  0  0  0
   -1.3124   -1.1604    0.0000 C   0  0  0  0  0  0  0  0  0  0  0  0
   -0.3205   -0.9605    0.0000 C   0  0  0  0  0  0  0  0  0  0  0  0
    0.0000    0.0000    0.0000 C   0  0  0  0  0  0  0  0  0  0  0  0
   -0.6715    0.7607    0.0000 C   0  0  0  0  0  0  0  0  0  0  0  0
   -1.6599    0.5538    0.0000 C   0  0  0  0  0  0  0  0  0  0  0  0
   -2.4768    1.1478    0.0000 N   0  0  0  0  0  0  0  0  0  0  0  0
   -3.2868    0.5554    0.0000 C   0  0  0  0  0  0  0  0  0  0  0  0
   -4.2648    0.7681    0.0000 C   0  0  0  0  0  0  0  0  0  0  0  0
   -4.9434    0.0258    0.0000 C   0  0  0  0  0  0  0  0  0  0  0  0
   -4.6369   -0.9329    0.0000 C   0  0  0  0  0  0  0  0  0  0  0  0
   -3.6518   -1.1492    0.0000 C   0  0  0  0  0  0  0  0  0  0  0  0
   -2.9803   -0.4033    0.0000 C   0  0  0  0  0  0  0  0  0  0  0  0
   -1.9803   -0.4068    0.0000 C   0  0  0  0  0  0  0  0  0  0  0  0
  1  2  1  0  0  0  0
  2  3  1  0  0  0  0
  3  8  2  0  0  0  0
  3  4  1  0  0  0  0
  4  5  2  0  0  0  0
  5  6  1  0  0  0  0
  6  7  2  0  0  0  0
  7  8  1  0  0  0  0
  8  9  1  0  0  0  0
  9 10  1  0  0  0  0
 10 11  1  0  0  0  0
 11 12  1  0  0  0  0
 12 13  1  0  0  0  0
 13 14  1  0  0  0  0
 14 15  1  0  0  0  0
 14 16  1  0  0  0  0
 16 17  1  0  0  0  0
 17 18  1  0  0  0  0
 18 30  2  0  0  0  0
 18 19  1  0  0  0  0
 19 20  2  0  0  0  0
 20 21  1  0  0  0  0
 21 22  2  0  0  0  0
 22 30  1  0  0  0  0
 22 23  1  0  0  0  0
 23 24  1  0  0  0  0
 24 29  2  0  0  0  0
 24 25  1  0  0  0  0
 25 26  2  0  0  0  0
 26 27  1  0  0  0  0
 27 28  2  0  0  0  0
 28 29  1  0  0  0  0
 29 30  1  0  0  0  0
M  END
>  <Name>
Carvedilol

>  <CAS #>
72956-09-3

>  <human Clearance (mL/min/kg)>
7.8

>  <Primary mechanism (metabolic, biliary or renal)>
metabolic

>  <seqId>
147.0

>  <Code (mechanism and clearance degree index)>
M1

>  < Five M1 and R1 test groups>
M1_5

>  <formamide>
0

>  <prodrug phosphates>
0

>  <VolSurf_V>
959.125

>  <VolSurf_S>
654.611

>  <VolSurf_R>
1.46518

>  <VolSurf_G>
1.642

>  <VolSurf_IW1>
0.0180416

>  <VolSurf_IW2>
0.0629979

>  <VolSurf_IW3>
0.178658

>  <VolSurf_IW4>
0.434206

>  <VolSurf_ID1>
0.0261651

>  <VolSurf_ID2>
0.0946343

>  <VolSurf_ID3>
0.157311

>  <VolSurf_ID4>
0.22994

>  <VolSurf_HL1>
0.824806

>  <VolSurf_HL2>
0.609819

>  <VolSurf_A>
2.79782

>  <VolSurf_CP>
1.53939

>  <VolSurf_POL>
48.289

>  <VolSurf_MW>
407.482

>  <VolSurf_FLEX>
3.38025

>  <VolSurf_FLEX_RB>
0.281687

>  <VolSurf_NCC>
1.0

>  <VolSurf_LOGP n-Oct>
3.554

>  <VolSurf_LOGP c-Hex>
1.5

>  <VolSurf_PSA>
90.13

>  <VolSurf_HSA>
564.481

>  <VolSurf_PSAR>
0.137685

>  <VolSurf_PHSAR>
0.159669

>  <VolSurf_LgD5>
0.67684

>  <VolSurf_LgD6>
1.63472

>  <VolSurf_LgD7>
2.58653

>  <VolSurf_LgD7.5>
2.99533

>  <VolSurf_LgD8>
3.29188

>  <VolSurf_LgD9>
3.51942

>  <VolSurf_LgD10>
3.55036

>  <VolSurf_AUS7.4>
1.37947

>  <VolSurf_%FU4>
0.0120646

>  <VolSurf_%FU5>
0.120515

>  <VolSurf_%FU6>
1.19222

>  <VolSurf_%FU7>
10.7669

>  <VolSurf_%FU8>
54.6815

>  <VolSurf_%FU9>
92.3454

>  <VolSurf_%FU10>
99.1642

>  <ID>
79

>  <MOKAID>
80

>  <Clearance Route>
possible billary

>  <PC1>
2.46266

>  <PC2>
-2.6160900000000002

$$$$
Caspofungin
  -OEChem-08301611272D

 77 80  0     1  0  0  0  0  0999 V2000
   -4.1498   12.3199    0.0000 C   0  0  0  0  0  0  0  0  0  0  0  0
   -4.3094   11.3327    0.0000 C   0  0  0  0  0  0  0  0  0  0  0  0
   -3.5342   10.7009    0.0000 C   0  0  3  0  0  0  0  0  0  0  0  0
   -2.5995   11.0563    0.0000 C   0  0  0  0  0  0  0  0  0  0  0  0
   -3.6938    9.7137    0.0000 C   0  0  0  0  0  0  0  0  0  0  0  0
   -2.9186    9.0819    0.0000 C   0  0  3  0  0  0  0  0  0  0  0  0
   -1.9839    9.4374    0.0000 C   0  0  0  0  0  0  0  0  0  0  0  0
   -3.0781    8.0948    0.0000 C   0  0  0  0  0  0  0  0  0  0  0  0
   -2.3030    7.4630    0.0000 C   0  0  0  0  0  0  0  0  0  0  0  0
   -2.4625    6.4758    0.0000 C   0  0  0  0  0  0  0  0  0  0  0  0
   -1.6873    5.8440    0.0000 C   0  0  0  0  0  0  0  0  0  0  0  0
   -1.8469    4.8569    0.0000 C   0  0  0  0  0  0  0  0  0  0  0  0
   -1.0717    4.2251    0.0000 C   0  0  0  0  0  0  0  0  0  0  0  0
   -1.2313    3.2379    0.0000 C   0  0  0  0  0  0  0  0  0  0  0  0
   -0.4561    2.6061    0.0000 C   0  0  0  0  0  0  0  0  0  0  0  0
   -0.6156    1.6190    0.0000 C   0  0  0  0  0  0  0  0  0  0  0  0
   -1.5503    1.2635    0.0000 O   0  0  0  0  0  0  0  0  0  0  0  0
    0.1595    0.9872    0.0000 N   0  0  0  0  0  0  0  0  0  0  0  0
    0.0000    0.0000    0.0000 C   0  0  3  0  0  0  0  0  0  0  0  0
   -1.0409    0.0000    0.0000 C   0  0  0  0  0  0  0  0  0  0  0  0
   -2.0422   -0.2637    0.0000 C   0  0  3  0  0  0  0  0  0  0  0  0
   -2.4476    0.6505    0.0000 O   0  0  0  0  0  0  0  0  0  0  0  0
   -2.9146   -0.8318    0.0000 C   0  0  3  0  0  0  0  0  0  0  0  0
   -3.5762   -0.0820    0.0000 N   0  0  0  0  0  0  0  0  0  0  0  0
   -4.5564   -0.2801    0.0000 C   0  0  0  0  0  0  0  0  0  0  0  0
   -5.2181    0.4697    0.0000 C   0  0  0  0  0  0  0  0  0  0  0  0
   -6.1983    0.2716    0.0000 N   0  0  0  0  0  0  0  0  0  0  0  0
   -3.5711   -1.6081    0.0000 N   0  0  0  0  0  0  0  0  0  0  0  0
   -3.9257   -2.5819    0.0000 C   0  0  0  0  0  0  0  0  0  0  0  0
   -4.8924   -2.3260    0.0000 O   0  0  0  0  0  0  0  0  0  0  0  0
   -4.0999   -3.6065    0.0000 C   0  0  3  0  0  0  0  0  0  0  0  0
   -5.1532   -3.5472    0.0000 C   0  0  3  0  0  0  0  0  0  0  0  0
   -6.0565   -2.0484    0.0000 O   0  0  0  0  0  0  0  0  0  0  0  0
   -5.5754   -4.4684    0.0000 C   0  0  0  0  0  0  0  0  0  0  0  0
   -4.8234   -5.1477    0.0000 C   0  0  0  0  0  0  0  0  0  0  0  0
   -3.8794   -4.6768    0.0000 N   0  0  0  0  0  0  0  0  0  0  0  0
   -3.3143   -5.5492    0.0000 C   0  0  0  0  0  0  0  0  0  0  0  0
   -4.1012   -6.1663    0.0000 O   0  0  0  0  0  0  0  0  0  0  0  0
   -2.6039   -6.3037    0.0000 C   0  0  3  0  0  0  0  0  0  0  0  0
   -1.6940   -6.7571    0.0000 N   0  0  0  0  0  0  0  0  0  0  0  0
   -0.6679   -6.9342    0.0000 C   0  0  0  0  0  0  0  0  0  0  0  0
   -0.6891   -7.9340    0.0000 O   0  0  0  0  0  0  0  0  0  0  0  0
    0.3646   -6.8008    0.0000 C   0  0  3  0  0  0  0  0  0  0  0  0
    1.2930   -6.3863    0.0000 N   0  0  0  0  0  0  0  0  0  0  0  0
    2.0350   -5.6628    0.0000 C   0  0  0  0  0  0  0  0  0  0  0  0
    2.7949   -6.3128    0.0000 O   0  0  0  0  0  0  0  0  0  0  0  0
    2.6365   -4.8152    0.0000 C   0  0  3  0  0  0  0  0  0  0  0  0
    3.5597   -5.3256    0.0000 C   0  0  0  0  0  0  0  0  0  0  0  0
    4.3400   -4.6789    0.0000 C   0  0  3  0  0  0  0  0  0  0  0  0
    5.3106   -4.9195    0.0000 O   0  0  0  0  0  0  0  0  0  0  0  0
    3.9572   -3.7552    0.0000 C   0  0  0  0  0  0  0  0  0  0  0  0
    2.9022   -3.7552    0.0000 N   0  0  0  0  0  0  0  0  0  0  0  0
    2.7716   -2.7240    0.0000 C   0  0  0  0  0  0  0  0  0  0  0  0
    3.7483   -2.5094    0.0000 O   0  0  0  0  0  0  0  0  0  0  0  0
    2.4589   -1.7361    0.0000 C   0  0  3  0  0  0  0  0  0  0  0  0
    1.8358   -0.9327    0.0000 N   0  0  0  0  0  0  0  0  0  0  0  0
    0.9883   -0.3280    0.0000 C   0  0  0  0  0  0  0  0  0  0  0  0
    1.4413    0.5635    0.0000 O   0  0  0  0  0  0  0  0  0  0  0  0
    4.0086   -0.9232    0.0000 C   0  0  3  0  0  0  0  0  0  0  0  0
    4.0491    0.0760    0.0000 C   0  0  0  0  0  0  0  0  0  0  0  0
    4.8537   -1.4578    0.0000 O   0  0  0  0  0  0  0  0  0  0  0  0
    0.8385   -8.4854    0.0000 C   0  0  3  0  0  0  0  0  0  0  0  0
    0.1402   -9.2012    0.0000 O   0  0  0  0  0  0  0  0  0  0  0  0
    1.8075   -8.7322    0.0000 C   0  0  3  0  0  0  0  0  0  0  0  0
    2.5058   -8.0164    0.0000 O   0  0  0  0  0  0  0  0  0  0  0  0
    2.0783   -9.6949    0.0000 C   0  0  0  0  0  0  0  0  0  0  0  0
    3.0531   -9.9401    0.0000 C   0  0  0  0  0  0  0  0  0  0  0  0
    3.3240  -10.9028    0.0000 C   0  0  0  0  0  0  0  0  0  0  0  0
    2.6299  -11.6227    0.0000 C   0  0  0  0  0  0  0  0  0  0  0  0
    2.9049  -12.5841    0.0000 O   0  0  0  0  0  0  0  0  0  0  0  0
    1.6550  -11.3775    0.0000 C   0  0  0  0  0  0  0  0  0  0  0  0
    1.3743  -10.4123    0.0000 C   0  0  0  0  0  0  0  0  0  0  0  0
   -3.6474   -7.7085    0.0000 C   0  0  3  0  0  0  0  0  0  0  0  0
   -4.6408   -7.5935    0.0000 O   0  0  0  0  0  0  0  0  0  0  0  0
   -3.2504   -8.6263    0.0000 C   0  0  0  0  0  0  0  0  0  0  0  0
   -3.8467   -9.4291    0.0000 C   0  0  0  0  0  0  0  0  0  0  0  0
   -3.4496  -10.3469    0.0000 N   0  0  0  0  0  0  0  0  0  0  0  0
  1  2  1  0  0  0  0
  2  3  1  0  0  0  0
  3  4  1  0  0  0  0
  3  5  1  0  0  0  0
  5  6  1  0  0  0  0
  6  7  1  0  0  0  0
  6  8  1  0  0  0  0
  8  9  1  0  0  0  0
  9 10  1  0  0  0  0
 10 11  1  0  0  0  0
 11 12  1  0  0  0  0
 12 13  1  0  0  0  0
 13 14  1  0  0  0  0
 14 15  1  0  0  0  0
 15 16  1  0  0  0  0
 16 17  2  0  0  0  0
 16 18  1  0  0  0  0
 18 19  1  0  0  0  0
 19 57  1  0  0  0  0
 19 20  1  0  0  0  0
 20 21  1  0  0  0  0
 21 22  1  0  0  0  0
 21 23  1  0  0  0  0
 23 24  1  0  0  0  0
 24 25  1  0  0  0  0
 25 26  1  0  0  0  0
 26 27  1  0  0  0  0
 23 28  1  0  0  0  0
 28 29  1  0  0  0  0
 29 30  2  0  0  0  0
 29 31  1  0  0  0  0
 31 36  1  0  0  0  0
 31 32  1  0  0  0  0
 32 33  1  0  0  0  0
 32 34  1  0  0  0  0
 34 35  1  0  0  0  0
 35 36  1  0  0  0  0
 36 37  1  0  0  0  0
 37 38  2  0  0  0  0
 37 39  1  0  0  0  0
 39 40  1  0  0  0  0
 40 41  1  0  0  0  0
 41 42  2  0  0  0  0
 41 43  1  0  0  0  0
 43 44  1  0  0  0  0
 44 45  1  0  0  0  0
 45 46  2  0  0  0  0
 45 47  1  0  0  0  0
 47 52  1  0  0  0  0
 47 48  1  0  0  0  0
 48 49  1  0  0  0  0
 49 50  1  0  0  0  0
 49 51  1  0  0  0  0
 51 52  1  0  0  0  0
 52 53  1  0  0  0  0
 53 54  2  0  0  0  0
 53 55  1  0  0  0  0
 55 56  1  0  0  0  0
 56 57  1  0  0  0  0
 57 58  2  0  0  0  0
 55 59  1  0  0  0  0
 59 60  1  0  0  0  0
 59 61  1  0  0  0  0
 43 62  1  0  0  0  0
 62 63  1  0  0  0  0
 62 64  1  0  0  0  0
 64 65  1  0  0  0  0
 64 66  1  0  0  0  0
 66 72  2  0  0  0  0
 66 67  1  0  0  0  0
 67 68  2  0  0  0  0
 68 69  1  0  0  0  0
 69 70  1  0  0  0  0
 69 71  2  0  0  0  0
 71 72  1  0  0  0  0
 39 73  1  0  0  0  0
 73 74  1  0  0  0  0
 73 75  1  0  0  0  0
 75 76  1  0  0  0  0
 76 77  1  0  0  0  0
M  END
>  <Name>
Caspofungin

>  <CAS #>
162808-62-0

>  <human Clearance (mL/min/kg)>
0.14

>  <Primary mechanism (metabolic, biliary or renal)>
metabolic

>  <seqId>
149.0

>  <Code (mechanism and clearance degree index)>
M1

>  < Five M1 and R1 test groups>
M1_2

>  <formamide>
0

>  <prodrug phosphates>
0

>  <VolSurf_V>
2213.38

>  <VolSurf_S>
1377.36

>  <VolSurf_R>
1.60697

>  <VolSurf_G>
2.17165

>  <VolSurf_IW1>
0.0667808

>  <VolSurf_IW2>
0.145481

>  <VolSurf_IW3>
0.234889

>  <VolSurf_IW4>
0.317163

>  <VolSurf_ID1>
0.0579856

>  <VolSurf_ID2>
0.10417

>  <VolSurf_ID3>
0.113223

>  <VolSurf_ID4>
0.108218

>  <VolSurf_HL1>
10.4976

>  <VolSurf_HL2>
18.8162

>  <VolSurf_A>
12.3104

>  <VolSurf_CP>
0.0725725

>  <VolSurf_POL>
114.421

>  <VolSurf_MW>
1095.33

>  <VolSurf_FLEX>
3.5975

>  <VolSurf_FLEX_RB>
0.0972296

>  <VolSurf_NCC>
2.0

>  <VolSurf_LOGP n-Oct>
-1.381

>  <VolSurf_LOGP c-Hex>
-9.0

>  <VolSurf_PSA>
428.75

>  <VolSurf_HSA>
948.609

>  <VolSurf_PSAR>
0.311284

>  <VolSurf_PHSAR>
0.451978

>  <VolSurf_LgD5>
-6.6486

>  <VolSurf_LgD6>
-6.61155

>  <VolSurf_LgD7>
-6.44871

>  <VolSurf_LgD7.5>
-6.18963

>  <VolSurf_LgD8>
-5.7502

>  <VolSurf_LgD9>
-4.53781

>  <VolSurf_LgD10>
-4.03322

>  <VolSurf_AUS7.4>
0.0

>  <VolSurf_%FU4>
0.0

>  <VolSurf_%FU5>
0.0

>  <VolSurf_%FU6>
0.0

>  <VolSurf_%FU7>
0.0

>  <VolSurf_%FU8>
0.0

>  <VolSurf_%FU9>
0.0

>  <VolSurf_%FU10>
0.0

>  <ID>
80

>  <MOKAID>
81

>  <Clearance Route>
possible billary

>  <PC1>
-6.71817

>  <PC2>
-7.334569999999999

$$$$
Cefadroxil
  -OEChem-08301611272D

 26 28  0     1  0  0  0  0  0999 V2000
    0.8653   -0.5013    0.0000 C   0  0  0  0  0  0  0  0  0  0  0  0
   -0.0000   -0.0000    0.0000 C   0  0  0  0  0  0  0  0  0  0  0  0
   -0.8716   -0.4998    0.0000 C   0  0  0  0  0  0  0  0  0  0  0  0
   -1.7375    0.0003    0.0000 N   0  0  0  0  0  0  0  0  0  0  0  0
   -1.7374    1.0058    0.0000 C   0  0  2  0  0  0  0  0  0  0  0  0
   -0.8713    1.5112    0.0000 S   0  0  0  0  0  0  0  0  0  0  0  0
    0.0001    1.0055    0.0000 C   0  0  0  0  0  0  0  0  0  0  0  0
   -2.7429    1.0058    0.0000 C   0  0  2  0  0  0  0  0  0  0  0  0
   -3.4500    1.7129    0.0000 N   0  0  0  0  0  0  0  0  0  0  0  0
   -4.4159    1.4541    0.0000 C   0  0  0  0  0  0  0  0  0  0  0  0
   -4.6748    0.4882    0.0000 O   0  0  0  0  0  0  0  0  0  0  0  0
   -5.1230    2.1612    0.0000 C   0  0  2  0  0  0  0  0  0  0  0  0
   -4.8642    3.1271    0.0000 N   0  0  0  0  0  0  0  0  0  0  0  0
   -6.0890    1.9024    0.0000 C   0  0  0  0  0  0  0  0  0  0  0  0
   -6.3463    0.9307    0.0000 C   0  0  0  0  0  0  0  0  0  0  0  0
   -7.3122    0.6718    0.0000 C   0  0  0  0  0  0  0  0  0  0  0  0
   -8.0235    1.3748    0.0000 C   0  0  0  0  0  0  0  0  0  0  0  0
   -8.9882    1.1117    0.0000 O   0  0  0  0  0  0  0  0  0  0  0  0
   -7.7662    2.3465    0.0000 C   0  0  0  0  0  0  0  0  0  0  0  0
   -6.7976    2.6152    0.0000 C   0  0  0  0  0  0  0  0  0  0  0  0
   -2.7429    0.0003    0.0000 C   0  0  0  0  0  0  0  0  0  0  0  0
   -3.4500   -0.7068    0.0000 O   0  0  0  0  0  0  0  0  0  0  0  0
   -0.8731   -1.4998    0.0000 C   0  0  0  0  0  0  0  0  0  0  0  0
   -1.7399   -1.9985    0.0000 O   0  0  0  0  0  0  0  0  0  0  0  0
   -0.0079   -2.0011    0.0000 O   0  0  0  0  0  0  0  0  0  0  0  0
   -1.9985    1.9711    0.0000 H   0  0  0  0  0  0  0  0  0  0  0  0
  1  2  1  0  0  0  0
  2  7  1  0  0  0  0
  2  3  2  0  0  0  0
  3  4  1  0  0  0  0
  4 21  1  0  0  0  0
  4  5  1  0  0  0  0
  5  6  1  0  0  0  0
  6  7  1  0  0  0  0
  5  8  1  0  0  0  0
  8  9  1  1  0  0  0
  9 10  1  0  0  0  0
 10 11  2  0  0  0  0
 10 12  1  0  0  0  0
 12 13  1  1  0  0  0
 12 14  1  0  0  0  0
 14 20  2  0  0  0  0
 14 15  1  0  0  0  0
 15 16  2  0  0  0  0
 16 17  1  0  0  0  0
 17 18  1  0  0  0  0
 17 19  2  0  0  0  0
 19 20  1  0  0  0  0
  8 21  1  0  0  0  0
 21 22  2  0  0  0  0
  3 23  1  0  0  0  0
 23 24  2  0  0  0  0
 23 25  1  0  0  0  0
  5 26  1  6  0  0  0
M  END
>  <Name>
Cefadroxil

>  <CAS #>
50370-12-2

>  <human Clearance (mL/min/kg)>
2.5

>  <Primary mechanism (metabolic, biliary or renal)>
renal

>  <seqId>
151.0

>  <Code (mechanism and clearance degree index)>
R1

>  < Five M1 and R1 test groups>
R1_3

>  <formamide>
0

>  <prodrug phosphates>
0

>  <VolSurf_V>
723.875

>  <VolSurf_S>
497.236

>  <VolSurf_R>
1.4558

>  <VolSurf_G>
1.4403

>  <VolSurf_IW1>
0.037205

>  <VolSurf_IW2>
0.090943

>  <VolSurf_IW3>
0.262247

>  <VolSurf_IW4>
0.460471

>  <VolSurf_ID1>
0.0303922

>  <VolSurf_ID2>
0.0773587

>  <VolSurf_ID3>
0.1713

>  <VolSurf_ID4>
0.0

>  <VolSurf_HL1>
11.4453

>  <VolSurf_HL2>
15.1724

>  <VolSurf_A>
2.80908

>  <VolSurf_CP>
0.203718

>  <VolSurf_POL>
35.415

>  <VolSurf_MW>
363.388

>  <VolSurf_FLEX>
1.32109

>  <VolSurf_FLEX_RB>
0.188728

>  <VolSurf_NCC>
2.0

>  <VolSurf_LOGP n-Oct>
-0.703

>  <VolSurf_LOGP c-Hex>
-5.215

>  <VolSurf_PSA>
161.91

>  <VolSurf_HSA>
335.326

>  <VolSurf_PSAR>
0.32562

>  <VolSurf_PHSAR>
0.482844

>  <VolSurf_LgD5>
-1.88141

>  <VolSurf_LgD6>
-1.88956

>  <VolSurf_LgD7>
-1.98

>  <VolSurf_LgD7.5>
-2.14242

>  <VolSurf_LgD8>
-2.44198

>  <VolSurf_LgD9>
-3.34318

>  <VolSurf_LgD10>
-4.41708

>  <VolSurf_AUS7.4>
0.0

>  <VolSurf_%FU4>
0.0

>  <VolSurf_%FU5>
0.0

>  <VolSurf_%FU6>
0.0

>  <VolSurf_%FU7>
0.0

>  <VolSurf_%FU8>
0.0

>  <VolSurf_%FU9>
0.0

>  <VolSurf_%FU10>
0.0

>  <ID>
81

>  <MOKAID>
82

>  <Clearance Route>
renal

>  <PC1>
-3.01654

>  <PC2>
0.775237

$$$$
Cefamandole
  -OEChem-08301611272D

 32 35  0     1  0  0  0  0  0999 V2000
    3.7189    0.8824    0.0000 C   0  0  0  0  0  0  0  0  0  0  0  0
    3.5106   -0.0957    0.0000 N   0  0  0  0  0  0  0  0  0  0  0  0
    4.1811   -0.8438    0.0000 N   0  0  0  0  0  0  0  0  0  0  0  0
    3.6765   -1.7090    0.0000 N   0  0  0  0  0  0  0  0  0  0  0  0
    2.6973   -1.4989    0.0000 N   0  0  0  0  0  0  0  0  0  0  0  0
    2.5973   -0.5040    0.0000 C   0  0  0  0  0  0  0  0  0  0  0  0
    1.7320   -0.0026    0.0000 S   0  0  0  0  0  0  0  0  0  0  0  0
    0.8653   -0.5013    0.0000 C   0  0  0  0  0  0  0  0  0  0  0  0
    0.0000    0.0000    0.0000 C   0  0  0  0  0  0  0  0  0  0  0  0
   -0.8716   -0.4998    0.0000 C   0  0  0  0  0  0  0  0  0  0  0  0
   -1.7375    0.0003    0.0000 N   0  0  0  0  0  0  0  0  0  0  0  0
   -1.7374    1.0058    0.0000 C   0  0  2  0  0  0  0  0  0  0  0  0
   -0.8713    1.5112    0.0000 S   0  0  0  0  0  0  0  0  0  0  0  0
    0.0001    1.0055    0.0000 C   0  0  0  0  0  0  0  0  0  0  0  0
   -2.7429    1.0058    0.0000 C   0  0  2  0  0  0  0  0  0  0  0  0
   -3.4500    1.7129    0.0000 N   0  0  0  0  0  0  0  0  0  0  0  0
   -4.4159    1.4541    0.0000 C   0  0  0  0  0  0  0  0  0  0  0  0
   -4.6748    0.4882    0.0000 O   0  0  0  0  0  0  0  0  0  0  0  0
   -5.1230    2.1612    0.0000 C   0  0  2  0  0  0  0  0  0  0  0  0
   -4.8642    3.1271    0.0000 O   0  0  0  0  0  0  0  0  0  0  0  0
   -6.0890    1.9024    0.0000 C   0  0  0  0  0  0  0  0  0  0  0  0
   -6.3463    0.9307    0.0000 C   0  0  0  0  0  0  0  0  0  0  0  0
   -7.3122    0.6718    0.0000 C   0  0  0  0  0  0  0  0  0  0  0  0
   -8.0235    1.3748    0.0000 C   0  0  0  0  0  0  0  0  0  0  0  0
   -7.7662    2.3465    0.0000 C   0  0  0  0  0  0  0  0  0  0  0  0
   -6.7976    2.6152    0.0000 C   0  0  0  0  0  0  0  0  0  0  0  0
   -2.7429    0.0003    0.0000 C   0  0  0  0  0  0  0  0  0  0  0  0
   -3.4500   -0.7068    0.0000 O   0  0  0  0  0  0  0  0  0  0  0  0
   -0.8731   -1.4998    0.0000 C   0  0  0  0  0  0  0  0  0  0  0  0
   -1.7399   -1.9985    0.0000 O   0  0  0  0  0  0  0  0  0  0  0  0
   -0.0079   -2.0011    0.0000 O   0  0  0  0  0  0  0  0  0  0  0  0
   -1.9985    1.9711    0.0000 H   0  0  0  0  0  0  0  0  0  0  0  0
  1  2  1  0  0  0  0
  2  6  1  0  0  0  0
  2  3  1  0  0  0  0
  3  4  2  0  0  0  0
  4  5  1  0  0  0  0
  5  6  2  0  0  0  0
  6  7  1  0  0  0  0
  7  8  1  0  0  0  0
  8  9  1  0  0  0  0
  9 14  1  0  0  0  0
  9 10  2  0  0  0  0
 10 11  1  0  0  0  0
 11 27  1  0  0  0  0
 11 12  1  0  0  0  0
 12 13  1  0  0  0  0
 13 14  1  0  0  0  0
 12 15  1  0  0  0  0
 15 16  1  1  0  0  0
 16 17  1  0  0  0  0
 17 18  2  0  0  0  0
 17 19  1  0  0  0  0
 19 20  1  1  0  0  0
 19 21  1  0  0  0  0
 21 26  2  0  0  0  0
 21 22  1  0  0  0  0
 22 23  2  0  0  0  0
 23 24  1  0  0  0  0
 24 25  2  0  0  0  0
 25 26  1  0  0  0  0
 15 27  1  0  0  0  0
 27 28  2  0  0  0  0
 10 29  1  0  0  0  0
 29 30  2  0  0  0  0
 29 31  1  0  0  0  0
 12 32  1  6  0  0  0
M  END
>  <Name>
Cefamandole

>  <CAS #>
34444-01-4

>  <human Clearance (mL/min/kg)>
3.6

>  <Primary mechanism (metabolic, biliary or renal)>
renal

>  <seqId>
152.0

>  <Code (mechanism and clearance degree index)>
R1

>  < Five M1 and R1 test groups>
R1_1

>  <formamide>
0

>  <prodrug phosphates>
0

>  <VolSurf_V>
893.0

>  <VolSurf_S>
607.47

>  <VolSurf_R>
1.47003

>  <VolSurf_G>
1.57656

>  <VolSurf_IW1>
0.105112

>  <VolSurf_IW2>
0.219523

>  <VolSurf_IW3>
0.527581

>  <VolSurf_IW4>
0.850715

>  <VolSurf_ID1>
0.040809

>  <VolSurf_ID2>
0.117452

>  <VolSurf_ID3>
0.242116

>  <VolSurf_ID4>
0.318195

>  <VolSurf_HL1>
6.48571

>  <VolSurf_HL2>
5.62431

>  <VolSurf_A>
4.01033

>  <VolSurf_CP>
0.27593

>  <VolSurf_POL>
42.208

>  <VolSurf_MW>
461.495

>  <VolSurf_FLEX>
2.0482

>  <VolSurf_FLEX_RB>
0.227578

>  <VolSurf_NCC>
1.0

>  <VolSurf_LOGP n-Oct>
-0.369

>  <VolSurf_LOGP c-Hex>
-4.76

>  <VolSurf_PSA>
179.97

>  <VolSurf_HSA>
427.5

>  <VolSurf_PSAR>
0.296262

>  <VolSurf_PHSAR>
0.420983

>  <VolSurf_LgD5>
-2.64116

>  <VolSurf_LgD6>
-3.2112

>  <VolSurf_LgD7>
-3.34952

>  <VolSurf_LgD7.5>
-3.36209

>  <VolSurf_LgD8>
-3.3662

>  <VolSurf_LgD9>
-3.36866

>  <VolSurf_LgD10>
-3.37639

>  <VolSurf_AUS7.4>
0.0

>  <VolSurf_%FU4>
4.18218

>  <VolSurf_%FU5>
0.434576

>  <VolSurf_%FU6>
0.0436281

>  <VolSurf_%FU7>
0.00436445

>  <VolSurf_%FU8>
4.36385E-4

>  <VolSurf_%FU9>
4.35616E-5

>  <VolSurf_%FU10>
4.28053E-6

>  <ID>
82

>  <MOKAID>
83

>  <Clearance Route>
renal

>  <PC1>
-3.34405

>  <PC2>
-0.0386195

$$$$
Cefatrizine
  -OEChem-08301611272D

 32 35  0     1  0  0  0  0  0999 V2000
   -4.8642    3.1271    0.0000 N   0  0  0  0  0  0  0  0  0  0  0  0
   -5.1230    2.1612    0.0000 C   0  0  1  0  0  0  0  0  0  0  0  0
   -4.4159    1.4541    0.0000 C   0  0  0  0  0  0  0  0  0  0  0  0
   -4.6748    0.4882    0.0000 O   0  0  0  0  0  0  0  0  0  0  0  0
   -3.4500    1.7129    0.0000 N   0  0  0  0  0  0  0  0  0  0  0  0
   -2.7429    1.0058    0.0000 C   0  0  1  0  0  0  0  0  0  0  0  0
   -1.7374    1.0058    0.0000 C   0  0  1  0  0  0  0  0  0  0  0  0
   -0.8713    1.5112    0.0000 S   0  0  0  0  0  0  0  0  0  0  0  0
    0.0001    1.0055    0.0000 C   0  0  0  0  0  0  0  0  0  0  0  0
    0.0000    0.0000    0.0000 C   0  0  0  0  0  0  0  0  0  0  0  0
   -0.8716   -0.4998    0.0000 C   0  0  0  0  0  0  0  0  0  0  0  0
   -1.7375    0.0003    0.0000 N   0  0  0  0  0  0  0  0  0  0  0  0
   -2.7429    0.0003    0.0000 C   0  0  0  0  0  0  0  0  0  0  0  0
   -3.4500   -0.7068    0.0000 O   0  0  0  0  0  0  0  0  0  0  0  0
   -0.8731   -1.4998    0.0000 C   0  0  0  0  0  0  0  0  0  0  0  0
   -1.7399   -1.9985    0.0000 O   0  0  0  0  0  0  0  0  0  0  0  0
   -0.0079   -2.0011    0.0000 O   0  0  0  0  0  0  0  0  0  0  0  0
    0.8653   -0.5013    0.0000 C   0  0  0  0  0  0  0  0  0  0  0  0
    1.7320   -0.0026    0.0000 S   0  0  0  0  0  0  0  0  0  0  0  0
    2.5973   -0.5040    0.0000 C   0  0  0  0  0  0  0  0  0  0  0  0
    2.6973   -1.4989    0.0000 C   0  0  0  0  0  0  0  0  0  0  0  0
    3.6765   -1.7090    0.0000 N   0  0  0  0  0  0  0  0  0  0  0  0
    4.1811   -0.8438    0.0000 N   0  0  0  0  0  0  0  0  0  0  0  0
    3.5106   -0.0957    0.0000 N   0  0  0  0  0  0  0  0  0  0  0  0
   -6.0890    1.9024    0.0000 C   0  0  0  0  0  0  0  0  0  0  0  0
   -6.3463    0.9307    0.0000 C   0  0  0  0  0  0  0  0  0  0  0  0
   -7.3122    0.6718    0.0000 C   0  0  0  0  0  0  0  0  0  0  0  0
   -8.0235    1.3748    0.0000 C   0  0  0  0  0  0  0  0  0  0  0  0
   -8.9882    1.1117    0.0000 O   0  0  0  0  0  0  0  0  0  0  0  0
   -7.7662    2.3465    0.0000 C   0  0  0  0  0  0  0  0  0  0  0  0
   -6.7976    2.6152    0.0000 C   0  0  0  0  0  0  0  0  0  0  0  0
   -1.9985    1.9711    0.0000 H   0  0  0  0  0  0  0  0  0  0  0  0
  2  1  1  1  0  0  0
  2  3  1  0  0  0  0
  3  4  2  0  0  0  0
  3  5  1  0  0  0  0
  6  5  1  1  0  0  0
  6 13  1  0  0  0  0
  6  7  1  0  0  0  0
  7 12  1  0  0  0  0
  7  8  1  0  0  0  0
  8  9  1  0  0  0  0
  9 10  1  0  0  0  0
 10 11  2  0  0  0  0
 11 12  1  0  0  0  0
 12 13  1  0  0  0  0
 13 14  2  0  0  0  0
 11 15  1  0  0  0  0
 15 16  2  0  0  0  0
 15 17  1  0  0  0  0
 10 18  1  0  0  0  0
 18 19  1  0  0  0  0
 19 20  1  0  0  0  0
 20 24  1  0  0  0  0
 20 21  2  0  0  0  0
 21 22  1  0  0  0  0
 22 23  1  0  0  0  0
 23 24  2  0  0  0  0
  2 25  1  0  0  0  0
 25 31  2  0  0  0  0
 25 26  1  0  0  0  0
 26 27  2  0  0  0  0
 27 28  1  0  0  0  0
 28 29  1  0  0  0  0
 28 30  2  0  0  0  0
 30 31  1  0  0  0  0
  7 32  1  6  0  0  0
M  END
>  <Name>
Cefatrizine

>  <CAS #>
51627-14-6

>  <human Clearance (mL/min/kg)>
3.3

>  <Primary mechanism (metabolic, biliary or renal)>
renal

>  <seqId>
153.0

>  <Code (mechanism and clearance degree index)>
R1

>  < Five M1 and R1 test groups>
R1_3

>  <formamide>
0

>  <prodrug phosphates>
0

>  <VolSurf_V>
857.125

>  <VolSurf_S>
592.802

>  <VolSurf_R>
1.44589

>  <VolSurf_G>
1.58341

>  <VolSurf_IW1>
0.0570747

>  <VolSurf_IW2>
0.108314

>  <VolSurf_IW3>
0.270842

>  <VolSurf_IW4>
0.613635

>  <VolSurf_ID1>
0.053073

>  <VolSurf_ID2>
0.0844299

>  <VolSurf_ID3>
0.16645

>  <VolSurf_ID4>
0.320999

>  <VolSurf_HL1>
19.187

>  <VolSurf_HL2>
23.7679

>  <VolSurf_A>
3.67991

>  <VolSurf_CP>
0.109597

>  <VolSurf_POL>
44.079

>  <VolSurf_MW>
461.495

>  <VolSurf_FLEX>
2.31398

>  <VolSurf_FLEX_RB>
0.257109

>  <VolSurf_NCC>
3.0

>  <VolSurf_LOGP n-Oct>
-0.69

>  <VolSurf_LOGP c-Hex>
-7.854

>  <VolSurf_PSA>
198.94

>  <VolSurf_HSA>
393.862

>  <VolSurf_PSAR>
0.335593

>  <VolSurf_PHSAR>
0.505101

>  <VolSurf_LgD5>
-2.23867

>  <VolSurf_LgD6>
-3.03978

>  <VolSurf_LgD7>
-4.10083

>  <VolSurf_LgD7.5>
-4.7479

>  <VolSurf_LgD8>
-5.44196

>  <VolSurf_LgD9>
-6.00823

>  <VolSurf_LgD10>
-6.36089

>  <VolSurf_AUS7.4>
0.0

>  <VolSurf_%FU4>
0.0

>  <VolSurf_%FU5>
0.0

>  <VolSurf_%FU6>
0.0

>  <VolSurf_%FU7>
0.0

>  <VolSurf_%FU8>
0.0

>  <VolSurf_%FU9>
0.0

>  <VolSurf_%FU10>
0.0

>  <ID>
83

>  <MOKAID>
84

>  <Clearance Route>
renal

>  <PC1>
-4.17735

>  <PC2>
-0.74078

$$$$
Cefazolin
  -OEChem-08301611272D

 30 33  0     1  0  0  0  0  0999 V2000
    5.1759   -0.7426    0.0000 C   0  0  0  0  0  0  0  0  0  0  0  0
    4.1811   -0.8438    0.0000 C   0  0  0  0  0  0  0  0  0  0  0  0
    3.6765   -1.7090    0.0000 N   0  0  0  0  0  0  0  0  0  0  0  0
    2.6973   -1.4989    0.0000 N   0  0  0  0  0  0  0  0  0  0  0  0
    2.5973   -0.5040    0.0000 C   0  0  0  0  0  0  0  0  0  0  0  0
    1.7320   -0.0026    0.0000 S   0  0  0  0  0  0  0  0  0  0  0  0
    0.8653   -0.5013    0.0000 C   0  0  0  0  0  0  0  0  0  0  0  0
   -0.0000   -0.0000    0.0000 C   0  0  0  0  0  0  0  0  0  0  0  0
   -0.8716   -0.4998    0.0000 C   0  0  0  0  0  0  0  0  0  0  0  0
   -1.7375    0.0003    0.0000 N   0  0  0  0  0  0  0  0  0  0  0  0
   -1.7374    1.0058    0.0000 C   0  0  2  0  0  0  0  0  0  0  0  0
   -0.8713    1.5112    0.0000 S   0  0  0  0  0  0  0  0  0  0  0  0
    0.0001    1.0055    0.0000 C   0  0  0  0  0  0  0  0  0  0  0  0
   -2.7429    1.0058    0.0000 C   0  0  2  0  0  0  0  0  0  0  0  0
   -3.4500    1.7129    0.0000 N   0  0  0  0  0  0  0  0  0  0  0  0
   -4.4159    1.4541    0.0000 C   0  0  0  0  0  0  0  0  0  0  0  0
   -4.6748    0.4882    0.0000 O   0  0  0  0  0  0  0  0  0  0  0  0
   -5.1230    2.1612    0.0000 C   0  0  0  0  0  0  0  0  0  0  0  0
   -6.0890    1.9024    0.0000 N   0  0  0  0  0  0  0  0  0  0  0  0
   -6.8676    2.5304    0.0000 C   0  0  0  0  0  0  0  0  0  0  0  0
   -7.7085    1.9893    0.0000 N   0  0  0  0  0  0  0  0  0  0  0  0
   -7.4508    1.0216    0.0000 N   0  0  0  0  0  0  0  0  0  0  0  0
   -6.4508    0.9652    0.0000 N   0  0  0  0  0  0  0  0  0  0  0  0
   -2.7429    0.0003    0.0000 C   0  0  0  0  0  0  0  0  0  0  0  0
   -3.4500   -0.7068    0.0000 O   0  0  0  0  0  0  0  0  0  0  0  0
   -0.8731   -1.4998    0.0000 C   0  0  0  0  0  0  0  0  0  0  0  0
   -1.7399   -1.9985    0.0000 O   0  0  0  0  0  0  0  0  0  0  0  0
   -0.0079   -2.0011    0.0000 O   0  0  0  0  0  0  0  0  0  0  0  0
    3.5106   -0.0957    0.0000 S   0  0  0  0  0  0  0  0  0  0  0  0
   -1.9985    1.9711    0.0000 H   0  0  0  0  0  0  0  0  0  0  0  0
  1  2  1  0  0  0  0
  2 29  1  0  0  0  0
  2  3  2  0  0  0  0
  3  4  1  0  0  0  0
  4  5  2  0  0  0  0
  5  6  1  0  0  0  0
  6  7  1  0  0  0  0
  7  8  1  0  0  0  0
  8 13  1  0  0  0  0
  8  9  2  0  0  0  0
  9 10  1  0  0  0  0
 10 24  1  0  0  0  0
 10 11  1  0  0  0  0
 11 12  1  0  0  0  0
 12 13  1  0  0  0  0
 11 14  1  0  0  0  0
 14 15  1  1  0  0  0
 15 16  1  0  0  0  0
 16 17  2  0  0  0  0
 16 18  1  0  0  0  0
 18 19  1  0  0  0  0
 19 23  1  0  0  0  0
 19 20  1  0  0  0  0
 20 21  2  0  0  0  0
 21 22  1  0  0  0  0
 22 23  2  0  0  0  0
 14 24  1  0  0  0  0
 24 25  2  0  0  0  0
  9 26  1  0  0  0  0
 26 27  2  0  0  0  0
 26 28  1  0  0  0  0
  5 29  1  0  0  0  0
 11 30  1  6  0  0  0
M  END
>  <Name>
Cefazolin

>  <CAS #>
25953-19-9

>  <human Clearance (mL/min/kg)>
0.89

>  <Primary mechanism (metabolic, biliary or renal)>
renal

>  <seqId>
155.0

>  <Code (mechanism and clearance degree index)>
R1

>  < Five M1 and R1 test groups>
R1_3

>  <formamide>
0

>  <prodrug phosphates>
0

>  <VolSurf_V>
831.75

>  <VolSurf_S>
573.571

>  <VolSurf_R>
1.45012

>  <VolSurf_G>
1.55297

>  <VolSurf_IW1>
0.0749901

>  <VolSurf_IW2>
0.144049

>  <VolSurf_IW3>
0.395503

>  <VolSurf_IW4>
0.645633

>  <VolSurf_ID1>
0.0229671

>  <VolSurf_ID2>
0.0381549

>  <VolSurf_ID3>
0.056512

>  <VolSurf_ID4>
0.0886537

>  <VolSurf_HL1>
6.39041

>  <VolSurf_HL2>
5.15

>  <VolSurf_A>
2.3732

>  <VolSurf_CP>
0.917096

>  <VolSurf_POL>
39.375

>  <VolSurf_MW>
453.499

>  <VolSurf_FLEX>
2.28141

>  <VolSurf_FLEX_RB>
0.285177

>  <VolSurf_NCC>
1.0

>  <VolSurf_LOGP n-Oct>
-1.19

>  <VolSurf_LOGP c-Hex>
-4.642

>  <VolSurf_PSA>
196.77

>  <VolSurf_HSA>
376.801

>  <VolSurf_PSAR>
0.343061

>  <VolSurf_PHSAR>
0.522212

>  <VolSurf_LgD5>
-3.67001

>  <VolSurf_LgD6>
-4.0988

>  <VolSurf_LgD7>
-4.17909

>  <VolSurf_LgD7.5>
-4.18585

>  <VolSurf_LgD8>
-4.18804

>  <VolSurf_LgD9>
-4.1893

>  <VolSurf_LgD10>
-4.19302

>  <VolSurf_AUS7.4>
0.0

>  <VolSurf_%FU4>
2.26387

>  <VolSurf_%FU5>
0.231126

>  <VolSurf_%FU6>
0.0231608

>  <VolSurf_%FU7>
0.00231654

>  <VolSurf_%FU8>
2.31639E-4

>  <VolSurf_%FU9>
2.31445E-5

>  <VolSurf_%FU10>
2.2951E-6

>  <ID>
84

>  <MOKAID>
85

>  <Clearance Route>
renal

>  <PC1>
-4.1332699999999996

>  <PC2>
-0.554782

$$$$
Cefcanel
  -OEChem-08301611272D

 32 35  0     1  0  0  0  0  0999 V2000
    5.1759   -0.7426    0.0000 C   0  0  0  0  0  0  0  0  0  0  0  0
    4.1811   -0.8438    0.0000 C   0  0  0  0  0  0  0  0  0  0  0  0
    3.6765   -1.7090    0.0000 N   0  0  0  0  0  0  0  0  0  0  0  0
    2.6973   -1.4989    0.0000 N   0  0  0  0  0  0  0  0  0  0  0  0
    2.5973   -0.5040    0.0000 C   0  0  0  0  0  0  0  0  0  0  0  0
    1.7320   -0.0026    0.0000 S   0  0  0  0  0  0  0  0  0  0  0  0
    0.8653   -0.5013    0.0000 C   0  0  0  0  0  0  0  0  0  0  0  0
   -0.0000   -0.0000    0.0000 C   0  0  0  0  0  0  0  0  0  0  0  0
   -0.8716   -0.4998    0.0000 C   0  0  0  0  0  0  0  0  0  0  0  0
   -1.7375    0.0003    0.0000 N   0  0  0  0  0  0  0  0  0  0  0  0
   -1.7374    1.0058    0.0000 C   0  0  2  0  0  0  0  0  0  0  0  0
   -0.8713    1.5112    0.0000 S   0  0  0  0  0  0  0  0  0  0  0  0
    0.0001    1.0055    0.0000 C   0  0  0  0  0  0  0  0  0  0  0  0
   -2.7429    1.0058    0.0000 C   0  0  2  0  0  0  0  0  0  0  0  0
   -3.4500    1.7129    0.0000 N   0  0  0  0  0  0  0  0  0  0  0  0
   -4.4159    1.4541    0.0000 C   0  0  0  0  0  0  0  0  0  0  0  0
   -4.6748    0.4882    0.0000 O   0  0  0  0  0  0  0  0  0  0  0  0
   -5.1230    2.1612    0.0000 C   0  0  2  0  0  0  0  0  0  0  0  0
   -4.8642    3.1271    0.0000 O   0  0  0  0  0  0  0  0  0  0  0  0
   -6.0890    1.9024    0.0000 C   0  0  0  0  0  0  0  0  0  0  0  0
   -6.3463    0.9307    0.0000 C   0  0  0  0  0  0  0  0  0  0  0  0
   -7.3122    0.6718    0.0000 C   0  0  0  0  0  0  0  0  0  0  0  0
   -8.0235    1.3748    0.0000 C   0  0  0  0  0  0  0  0  0  0  0  0
   -7.7662    2.3465    0.0000 C   0  0  0  0  0  0  0  0  0  0  0  0
   -6.7976    2.6152    0.0000 C   0  0  0  0  0  0  0  0  0  0  0  0
   -2.7429    0.0003    0.0000 C   0  0  0  0  0  0  0  0  0  0  0  0
   -3.4500   -0.7068    0.0000 O   0  0  0  0  0  0  0  0  0  0  0  0
   -0.8731   -1.4998    0.0000 C   0  0  0  0  0  0  0  0  0  0  0  0
   -1.7399   -1.9985    0.0000 O   0  0  0  0  0  0  0  0  0  0  0  0
   -0.0079   -2.0011    0.0000 O   0  0  0  0  0  0  0  0  0  0  0  0
    3.5106   -0.0957    0.0000 S   0  0  0  0  0  0  0  0  0  0  0  0
   -1.9985    1.9711    0.0000 H   0  0  0  0  0  0  0  0  0  0  0  0
  1  2  1  0  0  0  0
  2 31  1  0  0  0  0
  2  3  2  0  0  0  0
  3  4  1  0  0  0  0
  4  5  2  0  0  0  0
  5  6  1  0  0  0  0
  6  7  1  0  0  0  0
  7  8  1  0  0  0  0
  8 13  1  0  0  0  0
  8  9  2  0  0  0  0
  9 10  1  0  0  0  0
 10 26  1  0  0  0  0
 10 11  1  0  0  0  0
 11 12  1  0  0  0  0
 12 13  1  0  0  0  0
 11 14  1  0  0  0  0
 14 15  1  1  0  0  0
 15 16  1  0  0  0  0
 16 17  2  0  0  0  0
 16 18  1  0  0  0  0
 18 19  1  1  0  0  0
 18 20  1  0  0  0  0
 20 25  2  0  0  0  0
 20 21  1  0  0  0  0
 21 22  2  0  0  0  0
 22 23  1  0  0  0  0
 23 24  2  0  0  0  0
 24 25  1  0  0  0  0
 14 26  1  0  0  0  0
 26 27  2  0  0  0  0
  9 28  1  0  0  0  0
 28 29  2  0  0  0  0
 28 30  1  0  0  0  0
  5 31  1  0  0  0  0
 11 32  1  6  0  0  0
M  END
>  <Name>
Cefcanel

>  <CAS #>
41952-52-7

>  <human Clearance (mL/min/kg)>
2.6

>  <Primary mechanism (metabolic, biliary or renal)>
renal

>  <seqId>
156.0

>  <Code (mechanism and clearance degree index)>
R1

>  < Five M1 and R1 test groups>
R1_1

>  <formamide>
0

>  <prodrug phosphates>
0

>  <VolSurf_V>
917.0

>  <VolSurf_S>
621.146

>  <VolSurf_R>
1.4763

>  <VolSurf_G>
1.58743

>  <VolSurf_IW1>
0.0810734

>  <VolSurf_IW2>
0.182317

>  <VolSurf_IW3>
0.508666

>  <VolSurf_IW4>
0.806741

>  <VolSurf_ID1>
0.0378095

>  <VolSurf_ID2>
0.0638321

>  <VolSurf_ID3>
0.161568

>  <VolSurf_ID4>
0.229503

>  <VolSurf_HL1>
6.36842

>  <VolSurf_HL2>
6.02027

>  <VolSurf_A>
3.90457

>  <VolSurf_CP>
0.436272

>  <VolSurf_POL>
44.14

>  <VolSurf_MW>
477.557

>  <VolSurf_FLEX>
2.58175

>  <VolSurf_FLEX_RB>
0.286861

>  <VolSurf_NCC>
1.0

>  <VolSurf_LOGP n-Oct>
0.826

>  <VolSurf_LOGP c-Hex>
-2.682

>  <VolSurf_PSA>
176.1

>  <VolSurf_HSA>
445.046

>  <VolSurf_PSAR>
0.283508

>  <VolSurf_PHSAR>
0.395689

>  <VolSurf_LgD5>
-1.65401

>  <VolSurf_LgD6>
-2.0828

>  <VolSurf_LgD7>
-2.16309

>  <VolSurf_LgD7.5>
-2.16987

>  <VolSurf_LgD8>
-2.17208

>  <VolSurf_LgD9>
-2.17375

>  <VolSurf_LgD10>
-2.1814

>  <VolSurf_AUS7.4>
0.0

>  <VolSurf_%FU4>
2.26387

>  <VolSurf_%FU5>
0.231126

>  <VolSurf_%FU6>
0.0231607

>  <VolSurf_%FU7>
0.00231652

>  <VolSurf_%FU8>
2.31615E-4

>  <VolSurf_%FU9>
2.31207E-5

>  <VolSurf_%FU10>
2.27193E-6

>  <ID>
85

>  <MOKAID>
86

>  <Clearance Route>
renal

>  <PC1>
-2.44211

>  <PC2>
-0.90233

$$$$
Cefclidin
  -OEChem-08301611272D

 37 41  0     1  0  0  0  0  0999 V2000
   -1.6181   -2.1591    0.0000 N   0  0  0  0  0  0  0  0  0  0  0  0
   -0.7521   -1.6591    0.0000 C   0  0  0  0  0  0  0  0  0  0  0  0
   -0.7521   -0.6591    0.0000 C   0  0  0  0  0  0  0  0  0  0  0  0
    0.0000    0.0000    0.0000 C   0  0  0  0  0  0  0  0  0  0  0  0
    0.0282    1.4032    0.0000 C   0  0  0  0  0  0  0  0  0  0  0  0
   -0.7521    2.1473    0.0000 N   0  3  0  0  0  0  0  0  0  0  0  0
   -1.9631    1.4385    0.0000 C   0  0  0  0  0  0  0  0  0  0  0  0
   -1.9631    0.0354    0.0000 C   0  0  0  0  0  0  0  0  0  0  0  0
    0.4589    1.4385    0.0000 C   0  0  0  0  0  0  0  0  0  0  0  0
    0.4589    0.0354    0.0000 C   0  0  0  0  0  0  0  0  0  0  0  0
   -0.7521    3.1473    0.0000 C   0  0  0  0  0  0  0  0  0  0  0  0
   -1.6181    3.6473    0.0000 C   0  0  0  0  0  0  0  0  0  0  0  0
   -2.4896    3.1458    0.0000 C   0  0  0  0  0  0  0  0  0  0  0  0
   -3.3625    3.6489    0.0000 S   0  0  0  0  0  0  0  0  0  0  0  0
   -3.3563    4.6517    0.0000 C   0  0  3  0  0  0  0  0  0  0  0  0
   -3.8578    5.5232    0.0000 C   0  0  1  0  0  0  0  0  0  0  0  0
   -2.9862    6.0247    0.0000 C   0  0  0  0  0  0  0  0  0  0  0  0
   -2.4848    5.1532    0.0000 N   0  0  0  0  0  0  0  0  0  0  0  0
   -1.6196    4.6520    0.0000 C   0  0  0  0  0  0  0  0  0  0  0  0
   -0.7535    5.1521    0.0000 C   0  0  0  0  0  0  0  0  0  0  0  0
   -0.7536    6.1521    0.0000 O   0  0  0  0  0  0  0  0  0  0  0  0
    0.1125    4.6521    0.0000 O   0  0  0  0  0  0  0  0  0  0  0  0
   -2.7259    6.9902    0.0000 O   0  0  0  0  0  0  0  0  0  0  0  0
   -4.8233    5.7835    0.0000 N   0  0  0  0  0  0  0  0  0  0  0  0
   -5.0806    6.7498    0.0000 C   0  0  0  0  0  0  0  0  0  0  0  0
   -6.0462    7.0101    0.0000 C   0  0  0  0  0  0  0  0  0  0  0  0
   -6.3035    7.9765    0.0000 C   0  0  0  0  0  0  0  0  0  0  0  0
   -5.6711    8.7530    0.0000 N   0  0  0  0  0  0  0  0  0  0  0  0
   -6.2157    9.5917    0.0000 C   0  0  0  0  0  0  0  0  0  0  0  0
   -5.8544   10.5242    0.0000 N   0  0  0  0  0  0  0  0  0  0  0  0
   -7.1835    9.3388    0.0000 S   0  0  0  0  0  0  0  0  0  0  0  0
   -7.2385    8.3357    0.0000 N   0  0  0  0  0  0  0  0  0  0  0  0
   -6.7544    6.3041    0.0000 N   0  0  0  0  0  0  0  0  0  0  0  0
   -7.7199    6.5644    0.0000 O   0  0  0  0  0  0  0  0  0  0  0  0
   -8.4281    5.8584    0.0000 C   0  0  0  0  0  0  0  0  0  0  0  0
   -4.3725    7.4559    0.0000 O   0  0  0  0  0  0  0  0  0  0  0  0
    0.1139   -2.1591    0.0000 O   0  0  0  0  0  0  0  0  0  0  0  0
  1  2  1  0  0  0  0
  2  3  1  0  0  0  0
  3  8  1  0  0  0  0
  3 10  1  0  0  0  0
  3  4  1  0  0  0  0
  4  5  1  0  0  0  0
  5  6  1  0  0  0  0
  6  7  1  0  0  0  0
  7  8  1  0  0  0  0
  6  9  1  0  0  0  0
  9 10  1  0  0  0  0
  6 11  1  0  0  0  0
 11 12  1  0  0  0  0
 12 19  2  0  0  0  0
 12 13  1  0  0  0  0
 13 14  1  0  0  0  0
 14 15  1  0  0  0  0
 15 18  1  0  0  0  0
 15 16  1  0  0  0  0
 16 17  1  0  0  0  0
 17 18  1  0  0  0  0
 18 19  1  0  0  0  0
 19 20  1  0  0  0  0
 20 21  2  0  0  0  0
 20 22  1  0  0  0  0
 17 23  2  0  0  0  0
 16 24  1  6  0  0  0
 24 25  1  0  0  0  0
 25 26  1  0  0  0  0
 26 27  1  0  0  0  0
 27 32  2  0  0  0  0
 27 28  1  0  0  0  0
 28 29  2  0  0  0  0
 29 30  1  0  0  0  0
 29 31  1  0  0  0  0
 31 32  1  0  0  0  0
 26 33  2  3  0  0  0
 33 34  1  0  0  0  0
 34 35  1  0  0  0  0
 25 36  2  0  0  0  0
  2 37  2  0  0  0  0
M  CHG  1   6   1
M  END
>  <Name>
Cefclidin

>  <CAS #>
105239-91-6

>  <human Clearance (mL/min/kg)>
1.7

>  <Primary mechanism (metabolic, biliary or renal)>
renal

>  <seqId>
157.0

>  <Code (mechanism and clearance degree index)>
R1

>  < Five M1 and R1 test groups>
R1_2

>  <formamide>
0

>  <prodrug phosphates>
0

>  <VolSurf_V>
1014.0

>  <VolSurf_S>
683.437

>  <VolSurf_R>
1.48368

>  <VolSurf_G>
1.65685

>  <VolSurf_IW1>
0.0522023

>  <VolSurf_IW2>
0.112051

>  <VolSurf_IW3>
0.309465

>  <VolSurf_IW4>
0.531701

>  <VolSurf_ID1>
0.024951

>  <VolSurf_ID2>
0.0868742

>  <VolSurf_ID3>
0.178463

>  <VolSurf_ID4>
0.28122

>  <VolSurf_HL1>
5.15432

>  <VolSurf_HL2>
4.66837

>  <VolSurf_A>
3.66577

>  <VolSurf_CP>
0.353957

>  <VolSurf_POL>
49.769

>  <VolSurf_MW>
550.611

>  <VolSurf_FLEX>
1.90617

>  <VolSurf_FLEX_RB>
0.173289

>  <VolSurf_NCC>
2.0

>  <VolSurf_LOGP n-Oct>
-5.612

>  <VolSurf_LOGP c-Hex>
-4.77

>  <VolSurf_PSA>
244.24

>  <VolSurf_HSA>
439.197

>  <VolSurf_PSAR>
0.35737

>  <VolSurf_PHSAR>
0.556105

>  <VolSurf_LgD5>
-4.64492

>  <VolSurf_LgD6>
-4.64409

>  <VolSurf_LgD7>
-4.64401

>  <VolSurf_LgD7.5>
-4.644

>  <VolSurf_LgD8>
-4.64401

>  <VolSurf_LgD9>
-4.64404

>  <VolSurf_LgD10>
-4.64444

>  <VolSurf_AUS7.4>
0.0

>  <VolSurf_%FU4>
0.0

>  <VolSurf_%FU5>
0.0

>  <VolSurf_%FU6>
0.0

>  <VolSurf_%FU7>
0.0

>  <VolSurf_%FU8>
0.0

>  <VolSurf_%FU9>
0.0

>  <VolSurf_%FU10>
0.0

>  <ID>
86

>  <MOKAID>
87

>  <Clearance Route>
renal

>  <PC1>
-5.35687

>  <PC2>
-1.39289

$$$$
Cefepime
  -OEChem-08301611272D

 33 36  0     1  0  0  0  0  0999 V2000
   -3.6395    4.3519    0.0000 C   0  0  0  0  0  0  0  0  0  0  0  0
   -3.8983    3.3859    0.0000 O   0  0  0  0  0  0  0  0  0  0  0  0
   -4.8642    3.1271    0.0000 N   0  0  0  0  0  0  0  0  0  0  0  0
   -5.1230    2.1612    0.0000 C   0  0  0  0  0  0  0  0  0  0  0  0
   -4.4159    1.4541    0.0000 C   0  0  0  0  0  0  0  0  0  0  0  0
   -4.6748    0.4882    0.0000 O   0  0  0  0  0  0  0  0  0  0  0  0
   -3.4500    1.7129    0.0000 N   0  0  0  0  0  0  0  0  0  0  0  0
   -2.7429    1.0058    0.0000 C   0  0  1  0  0  0  0  0  0  0  0  0
   -1.7374    1.0058    0.0000 C   0  0  1  0  0  0  0  0  0  0  0  0
   -0.8713    1.5112    0.0000 S   0  0  0  0  0  0  0  0  0  0  0  0
    0.0001    1.0055    0.0000 C   0  0  0  0  0  0  0  0  0  0  0  0
   -0.0000    0.0000    0.0000 C   0  0  0  0  0  0  0  0  0  0  0  0
   -0.8716   -0.4998    0.0000 C   0  0  0  0  0  0  0  0  0  0  0  0
   -1.7375    0.0003    0.0000 N   0  0  0  0  0  0  0  0  0  0  0  0
   -2.7429    0.0003    0.0000 C   0  0  0  0  0  0  0  0  0  0  0  0
   -3.4500   -0.7068    0.0000 O   0  0  0  0  0  0  0  0  0  0  0  0
   -0.8731   -1.4998    0.0000 C   0  0  0  0  0  0  0  0  0  0  0  0
   -1.7399   -1.9985    0.0000 O   0  0  0  0  0  0  0  0  0  0  0  0
   -0.0079   -2.0011    0.0000 O   0  5  0  0  0  0  0  0  0  0  0  0
    0.8653   -0.5013    0.0000 C   0  0  0  0  0  0  0  0  0  0  0  0
    1.7320   -0.0026    0.0000 N   0  3  0  0  0  0  0  0  0  0  0  0
    1.1466    0.8081    0.0000 C   0  0  0  0  0  0  0  0  0  0  0  0
    2.1388   -0.9167    0.0000 C   0  0  0  0  0  0  0  0  0  0  0  0
    3.1340   -0.8185    0.0000 C   0  0  0  0  0  0  0  0  0  0  0  0
    3.3459    0.1604    0.0000 C   0  0  0  0  0  0  0  0  0  0  0  0
    2.4815    0.6665    0.0000 C   0  0  0  0  0  0  0  0  0  0  0  0
   -6.0890    1.9024    0.0000 C   0  0  0  0  0  0  0  0  0  0  0  0
   -6.4486    0.9692    0.0000 C   0  0  0  0  0  0  0  0  0  0  0  0
   -7.4477    1.0168    0.0000 S   0  0  0  0  0  0  0  0  0  0  0  0
   -7.7086    1.9868    0.0000 C   0  0  0  0  0  0  0  0  0  0  0  0
   -8.6422    2.3452    0.0000 N   0  0  0  0  0  0  0  0  0  0  0  0
   -6.8680    2.5315    0.0000 N   0  0  0  0  0  0  0  0  0  0  0  0
   -1.9985    1.9711    0.0000 H   0  0  0  0  0  0  0  0  0  0  0  0
  1  2  1  0  0  0  0
  2  3  1  0  0  0  0
  3  4  2  0  0  0  0
  4  5  1  0  0  0  0
  5  6  2  0  0  0  0
  5  7  1  0  0  0  0
  8  7  1  1  0  0  0
  8 15  1  0  0  0  0
  8  9  1  0  0  0  0
  9 14  1  0  0  0  0
  9 10  1  0  0  0  0
 10 11  1  0  0  0  0
 11 12  1  0  0  0  0
 12 13  2  0  0  0  0
 13 14  1  0  0  0  0
 14 15  1  0  0  0  0
 15 16  2  0  0  0  0
 13 17  1  0  0  0  0
 17 18  2  0  0  0  0
 17 19  1  0  0  0  0
 12 20  1  0  0  0  0
 20 21  1  0  0  0  0
 21 26  1  0  0  0  0
 21 22  1  0  0  0  0
 21 23  1  0  0  0  0
 23 24  1  0  0  0  0
 24 25  1  0  0  0  0
 25 26  1  0  0  0  0
  4 27  1  0  0  0  0
 27 32  1  0  0  0  0
 27 28  2  0  0  0  0
 28 29  1  0  0  0  0
 29 30  1  0  0  0  0
 30 31  1  0  0  0  0
 30 32  2  0  0  0  0
  9 33  1  6  0  0  0
M  CHG  2  19  -1  21   1
M  END
>  <Name>
Cefepime

>  <CAS #>
88040-23-7

>  <human Clearance (mL/min/kg)>
2.2

>  <Primary mechanism (metabolic, biliary or renal)>
renal

>  <seqId>
158.0

>  <Code (mechanism and clearance degree index)>
R1

>  < Five M1 and R1 test groups>
R1_4

>  <formamide>
0

>  <prodrug phosphates>
0

>  <VolSurf_V>
936.625

>  <VolSurf_S>
630.559

>  <VolSurf_R>
1.48539

>  <VolSurf_G>
1.58963

>  <VolSurf_IW1>
0.0586601

>  <VolSurf_IW2>
0.141288

>  <VolSurf_IW3>
0.440154

>  <VolSurf_IW4>
0.746764

>  <VolSurf_ID1>
0.0241123

>  <VolSurf_ID2>
0.154444

>  <VolSurf_ID3>
0.216028

>  <VolSurf_ID4>
0.261102

>  <VolSurf_HL1>
7.15423

>  <VolSurf_HL2>
6.05224

>  <VolSurf_A>
5.86084

>  <VolSurf_CP>
0.152631

>  <VolSurf_POL>
44.475

>  <VolSurf_MW>
480.561

>  <VolSurf_FLEX>
1.68475

>  <VolSurf_FLEX_RB>
0.168475

>  <VolSurf_NCC>
2.0

>  <VolSurf_LOGP n-Oct>
-3.619

>  <VolSurf_LOGP c-Hex>
-3.245

>  <VolSurf_PSA>
188.52

>  <VolSurf_HSA>
442.039

>  <VolSurf_PSAR>
0.298973

>  <VolSurf_PHSAR>
0.426478

>  <VolSurf_LgD5>
-2.65998

>  <VolSurf_LgD6>
-2.6519

>  <VolSurf_LgD7>
-2.65109

>  <VolSurf_LgD7.5>
-2.65103

>  <VolSurf_LgD8>
-2.65101

>  <VolSurf_LgD9>
-2.65106

>  <VolSurf_LgD10>
-2.65155

>  <VolSurf_AUS7.4>
0.0

>  <VolSurf_%FU4>
0.0

>  <VolSurf_%FU5>
0.0

>  <VolSurf_%FU6>
0.0

>  <VolSurf_%FU7>
0.0

>  <VolSurf_%FU8>
0.0

>  <VolSurf_%FU9>
0.0

>  <VolSurf_%FU10>
0.0

>  <ID>
87

>  <MOKAID>
88

>  <Clearance Route>
renal

>  <PC1>
-3.67392

>  <PC2>
-0.5715600000000001

$$$$
Cefetamet
  -OEChem-08301611272D

 27 29  0     1  0  0  0  0  0999 V2000
   -3.6395    4.3519    0.0000 C   0  0  0  0  0  0  0  0  0  0  0  0
   -3.8983    3.3859    0.0000 O   0  0  0  0  0  0  0  0  0  0  0  0
   -4.8642    3.1271    0.0000 N   0  0  0  0  0  0  0  0  0  0  0  0
   -5.1230    2.1612    0.0000 C   0  0  0  0  0  0  0  0  0  0  0  0
   -4.4159    1.4541    0.0000 C   0  0  0  0  0  0  0  0  0  0  0  0
   -4.6748    0.4882    0.0000 O   0  0  0  0  0  0  0  0  0  0  0  0
   -3.4500    1.7129    0.0000 N   0  0  0  0  0  0  0  0  0  0  0  0
   -2.7429    1.0058    0.0000 C   0  0  1  0  0  0  0  0  0  0  0  0
   -1.7374    1.0058    0.0000 C   0  0  1  0  0  0  0  0  0  0  0  0
   -0.8713    1.5112    0.0000 S   0  0  0  0  0  0  0  0  0  0  0  0
    0.0001    1.0055    0.0000 C   0  0  0  0  0  0  0  0  0  0  0  0
   -0.0000    0.0000    0.0000 C   0  0  0  0  0  0  0  0  0  0  0  0
   -0.8716   -0.4998    0.0000 C   0  0  0  0  0  0  0  0  0  0  0  0
   -1.7375    0.0003    0.0000 N   0  0  0  0  0  0  0  0  0  0  0  0
   -2.7429    0.0003    0.0000 C   0  0  0  0  0  0  0  0  0  0  0  0
   -3.4500   -0.7068    0.0000 O   0  0  0  0  0  0  0  0  0  0  0  0
   -0.8731   -1.4998    0.0000 C   0  0  0  0  0  0  0  0  0  0  0  0
   -1.7399   -1.9985    0.0000 O   0  0  0  0  0  0  0  0  0  0  0  0
   -0.0079   -2.0011    0.0000 O   0  0  0  0  0  0  0  0  0  0  0  0
    0.8653   -0.5013    0.0000 C   0  0  0  0  0  0  0  0  0  0  0  0
   -6.0890    1.9024    0.0000 C   0  0  0  0  0  0  0  0  0  0  0  0
   -6.4486    0.9692    0.0000 C   0  0  0  0  0  0  0  0  0  0  0  0
   -7.4477    1.0168    0.0000 S   0  0  0  0  0  0  0  0  0  0  0  0
   -7.7086    1.9868    0.0000 C   0  0  0  0  0  0  0  0  0  0  0  0
   -8.6422    2.3452    0.0000 N   0  0  0  0  0  0  0  0  0  0  0  0
   -6.8680    2.5315    0.0000 N   0  0  0  0  0  0  0  0  0  0  0  0
   -1.9985    1.9711    0.0000 H   0  0  0  0  0  0  0  0  0  0  0  0
  1  2  1  0  0  0  0
  2  3  1  0  0  0  0
  3  4  2  0  0  0  0
  4  5  1  0  0  0  0
  5  6  2  0  0  0  0
  5  7  1  0  0  0  0
  8  7  1  1  0  0  0
  8 15  1  0  0  0  0
  8  9  1  0  0  0  0
  9 14  1  0  0  0  0
  9 10  1  0  0  0  0
 10 11  1  0  0  0  0
 11 12  1  0  0  0  0
 12 13  2  0  0  0  0
 13 14  1  0  0  0  0
 14 15  1  0  0  0  0
 15 16  2  0  0  0  0
 13 17  1  0  0  0  0
 17 18  2  0  0  0  0
 17 19  1  0  0  0  0
 12 20  1  0  0  0  0
  4 21  1  0  0  0  0
 21 26  1  0  0  0  0
 21 22  2  0  0  0  0
 22 23  1  0  0  0  0
 23 24  1  0  0  0  0
 24 25  1  0  0  0  0
 24 26  2  0  0  0  0
  9 27  1  6  0  0  0
M  END
>  <Name>
Cefetamet

>  <CAS #>
65052-63-3

>  <human Clearance (mL/min/kg)>
1.9

>  <Primary mechanism (metabolic, biliary or renal)>
renal

>  <seqId>
159.0

>  <Code (mechanism and clearance degree index)>
R1

>  < Five M1 and R1 test groups>
R1_2

>  <formamide>
0

>  <prodrug phosphates>
0

>  <VolSurf_V>
746.875

>  <VolSurf_S>
522.985

>  <VolSurf_R>
1.4281

>  <VolSurf_G>
1.50577

>  <VolSurf_IW1>
0.0760748

>  <VolSurf_IW2>
0.168725

>  <VolSurf_IW3>
0.59669

>  <VolSurf_IW4>
0.957149

>  <VolSurf_ID1>
0.0280924

>  <VolSurf_ID2>
0.111763

>  <VolSurf_ID3>
0.182253

>  <VolSurf_ID4>
0.236132

>  <VolSurf_HL1>
5.35741

>  <VolSurf_HL2>
4.76923

>  <VolSurf_A>
5.27524

>  <VolSurf_CP>
0.347377

>  <VolSurf_POL>
34.9

>  <VolSurf_MW>
396.421

>  <VolSurf_FLEX>
1.12617

>  <VolSurf_FLEX_RB>
0.140772

>  <VolSurf_NCC>
1.0

>  <VolSurf_LOGP n-Oct>
0.363

>  <VolSurf_LOGP c-Hex>
-4.844

>  <VolSurf_PSA>
181.55

>  <VolSurf_HSA>
341.435

>  <VolSurf_PSAR>
0.347142

>  <VolSurf_PHSAR>
0.531727

>  <VolSurf_LgD5>
-2.60193

>  <VolSurf_LgD6>
-2.6324

>  <VolSurf_LgD7>
-2.63564

>  <VolSurf_LgD7.5>
-2.63589

>  <VolSurf_LgD8>
-2.63597

>  <VolSurf_LgD9>
-2.63605

>  <VolSurf_LgD10>
-2.63654

>  <VolSurf_AUS7.4>
0.0

>  <VolSurf_%FU4>
0.0

>  <VolSurf_%FU5>
0.0

>  <VolSurf_%FU6>
0.0

>  <VolSurf_%FU7>
0.0

>  <VolSurf_%FU8>
0.0

>  <VolSurf_%FU9>
0.0

>  <VolSurf_%FU10>
0.0

>  <ID>
88

>  <MOKAID>
89

>  <Clearance Route>
renal

>  <PC1>
-3.07176

>  <PC2>
0.03293069999999999

$$$$
Cefixime
  -OEChem-08301611272D

 31 33  0     1  0  0  0  0  0999 V2000
   -1.9794    6.3416    0.0000 N   0  0  0  0  0  0  0  0  0  0  0  0
   -2.7565    5.7123    0.0000 C   0  0  0  0  0  0  0  0  0  0  0  0
   -2.7051    4.7120    0.0000 N   0  0  0  0  0  0  0  0  0  0  0  0
   -3.6395    4.3519    0.0000 C   0  0  0  0  0  0  0  0  0  0  0  0
   -4.2678    5.1299    0.0000 C   0  0  0  0  0  0  0  0  0  0  0  0
   -3.7270    5.9713    0.0000 S   0  0  0  0  0  0  0  0  0  0  0  0
   -3.8983    3.3859    0.0000 C   0  0  0  0  0  0  0  0  0  0  0  0
   -4.8642    3.1271    0.0000 N   0  0  0  0  0  0  0  0  0  0  0  0
   -5.1230    2.1612    0.0000 O   0  0  0  0  0  0  0  0  0  0  0  0
   -6.0890    1.9024    0.0000 C   0  0  0  0  0  0  0  0  0  0  0  0
   -6.3478    0.9364    0.0000 C   0  0  0  0  0  0  0  0  0  0  0  0
   -5.6407    0.2293    0.0000 O   0  0  0  0  0  0  0  0  0  0  0  0
   -7.3137    0.6776    0.0000 O   0  0  0  0  0  0  0  0  0  0  0  0
   -3.1912    2.6788    0.0000 C   0  0  0  0  0  0  0  0  0  0  0  0
   -2.2253    2.9377    0.0000 O   0  0  0  0  0  0  0  0  0  0  0  0
   -3.4500    1.7129    0.0000 N   0  0  0  0  0  0  0  0  0  0  0  0
   -2.7429    1.0058    0.0000 C   0  0  1  0  0  0  0  0  0  0  0  0
   -1.7374    1.0058    0.0000 C   0  0  1  0  0  0  0  0  0  0  0  0
   -0.8713    1.5112    0.0000 S   0  0  0  0  0  0  0  0  0  0  0  0
    0.0001    1.0055    0.0000 C   0  0  0  0  0  0  0  0  0  0  0  0
    0.0000    0.0000    0.0000 C   0  0  0  0  0  0  0  0  0  0  0  0
   -0.8716   -0.4998    0.0000 C   0  0  0  0  0  0  0  0  0  0  0  0
   -1.7375    0.0003    0.0000 N   0  0  0  0  0  0  0  0  0  0  0  0
   -2.7429    0.0003    0.0000 C   0  0  0  0  0  0  0  0  0  0  0  0
   -3.4500   -0.7068    0.0000 O   0  0  0  0  0  0  0  0  0  0  0  0
   -0.8731   -1.4998    0.0000 C   0  0  0  0  0  0  0  0  0  0  0  0
   -1.7399   -1.9985    0.0000 O   0  0  0  0  0  0  0  0  0  0  0  0
   -0.0079   -2.0011    0.0000 O   0  0  0  0  0  0  0  0  0  0  0  0
    0.8653   -0.5013    0.0000 C   0  0  0  0  0  0  0  0  0  0  0  0
    1.7320   -0.0026    0.0000 C   0  0  0  0  0  0  0  0  0  0  0  0
   -1.9985    1.9711    0.0000 H   0  0  0  0  0  0  0  0  0  0  0  0
  1  2  1  0  0  0  0
  2  6  1  0  0  0  0
  2  3  2  0  0  0  0
  3  4  1  0  0  0  0
  4  5  2  0  0  0  0
  5  6  1  0  0  0  0
  4  7  1  0  0  0  0
  7  8  2  0  0  0  0
  8  9  1  0  0  0  0
  9 10  1  0  0  0  0
 10 11  1  0  0  0  0
 11 12  2  0  0  0  0
 11 13  1  0  0  0  0
  7 14  1  0  0  0  0
 14 15  2  0  0  0  0
 14 16  1  0  0  0  0
 17 16  1  1  0  0  0
 17 24  1  0  0  0  0
 17 18  1  0  0  0  0
 18 23  1  0  0  0  0
 18 19  1  0  0  0  0
 19 20  1  0  0  0  0
 20 21  1  0  0  0  0
 21 22  2  0  0  0  0
 22 23  1  0  0  0  0
 23 24  1  0  0  0  0
 24 25  2  0  0  0  0
 22 26  1  0  0  0  0
 26 27  2  0  0  0  0
 26 28  1  0  0  0  0
 21 29  1  0  0  0  0
 29 30  2  0  0  0  0
 18 31  1  6  0  0  0
M  END
>  <Name>
Cefixime

>  <CAS #>
79350-37-1

>  <human Clearance (mL/min/kg)>
1.0

>  <Primary mechanism (metabolic, biliary or renal)>
renal

>  <seqId>
160.0

>  <Code (mechanism and clearance degree index)>
R1

>  < Five M1 and R1 test groups>
R1_4

>  <formamide>
0

>  <prodrug phosphates>
0

>  <VolSurf_V>
838.875

>  <VolSurf_S>
580.939

>  <VolSurf_R>
1.444

>  <VolSurf_G>
1.56954

>  <VolSurf_IW1>
0.0477306

>  <VolSurf_IW2>
0.0890436

>  <VolSurf_IW3>
0.19881

>  <VolSurf_IW4>
0.377828

>  <VolSurf_ID1>
0.0456833

>  <VolSurf_ID2>
0.0355333

>  <VolSurf_ID3>
0.0997885

>  <VolSurf_ID4>
0.257819

>  <VolSurf_HL1>
8.4

>  <VolSurf_HL2>
8.66142

>  <VolSurf_A>
1.76196

>  <VolSurf_CP>
0.640152

>  <VolSurf_POL>
38.494

>  <VolSurf_MW>
451.434

>  <VolSurf_FLEX>
2.02901

>  <VolSurf_FLEX_RB>
0.225446

>  <VolSurf_NCC>
2.0

>  <VolSurf_LOGP n-Oct>
-0.381

>  <VolSurf_LOGP c-Hex>
-7.703

>  <VolSurf_PSA>
227.67

>  <VolSurf_HSA>
353.269

>  <VolSurf_PSAR>
0.3919

>  <VolSurf_PHSAR>
0.644467

>  <VolSurf_LgD5>
-6.29546

>  <VolSurf_LgD6>
-6.71656

>  <VolSurf_LgD7>
-6.7257

>  <VolSurf_LgD7.5>
-6.72592

>  <VolSurf_LgD8>
-6.72598

>  <VolSurf_LgD9>
-6.726

>  <VolSurf_LgD10>
-6.72601

>  <VolSurf_AUS7.4>
0.0

>  <VolSurf_%FU4>
0.0

>  <VolSurf_%FU5>
0.0

>  <VolSurf_%FU6>
0.0

>  <VolSurf_%FU7>
0.0

>  <VolSurf_%FU8>
0.0

>  <VolSurf_%FU9>
0.0

>  <VolSurf_%FU10>
0.0

>  <ID>
89

>  <MOKAID>
90

>  <Clearance Route>
renal

>  <PC1>
-6.15156

>  <PC2>
-0.022157299999999998

$$$$
Cefmenoxime
  -OEChem-08301611272D

 34 37  0     1  0  0  0  0  0999 V2000
   -1.7375    0.0003    0.0000 N   0  0  0  0  0  0  0  0  0  0  0  0
   -1.7374    1.0058    0.0000 C   0  0  1  0  0  0  0  0  0  0  0  0
   -2.7429    1.0058    0.0000 C   0  0  1  0  0  0  0  0  0  0  0  0
   -3.4500    1.7129    0.0000 N   0  0  0  0  0  0  0  0  0  0  0  0
   -4.4159    1.4541    0.0000 C   0  0  0  0  0  0  0  0  0  0  0  0
   -5.1230    2.1612    0.0000 C   0  0  0  0  0  0  0  0  0  0  0  0
   -6.0890    1.9024    0.0000 C   0  0  0  0  0  0  0  0  0  0  0  0
   -6.4486    0.9692    0.0000 C   0  0  0  0  0  0  0  0  0  0  0  0
   -7.4477    1.0168    0.0000 S   0  0  0  0  0  0  0  0  0  0  0  0
   -7.7086    1.9868    0.0000 C   0  0  0  0  0  0  0  0  0  0  0  0
   -6.8680    2.5315    0.0000 N   0  0  0  0  0  0  0  0  0  0  0  0
   -8.6422    2.3452    0.0000 N   0  0  0  0  0  0  0  0  0  0  0  0
   -4.8642    3.1271    0.0000 N   0  0  0  0  0  0  0  0  0  0  0  0
   -3.8983    3.3859    0.0000 O   0  0  0  0  0  0  0  0  0  0  0  0
   -3.6395    4.3519    0.0000 C   0  0  0  0  0  0  0  0  0  0  0  0
   -4.6748    0.4882    0.0000 O   0  0  0  0  0  0  0  0  0  0  0  0
   -2.7429    0.0003    0.0000 C   0  0  0  0  0  0  0  0  0  0  0  0
   -3.4500   -0.7068    0.0000 O   0  0  0  0  0  0  0  0  0  0  0  0
   -0.8713    1.5112    0.0000 S   0  0  0  0  0  0  0  0  0  0  0  0
    0.0001    1.0055    0.0000 C   0  0  0  0  0  0  0  0  0  0  0  0
    0.0000   -0.0000    0.0000 C   0  0  0  0  0  0  0  0  0  0  0  0
   -0.8716   -0.4998    0.0000 C   0  0  0  0  0  0  0  0  0  0  0  0
   -0.8731   -1.4998    0.0000 C   0  0  0  0  0  0  0  0  0  0  0  0
   -0.0079   -2.0011    0.0000 O   0  0  0  0  0  0  0  0  0  0  0  0
   -1.7399   -1.9985    0.0000 O   0  0  0  0  0  0  0  0  0  0  0  0
    0.8653   -0.5013    0.0000 C   0  0  0  0  0  0  0  0  0  0  0  0
    1.7320   -0.0026    0.0000 S   0  0  0  0  0  0  0  0  0  0  0  0
    2.5973   -0.5040    0.0000 C   0  0  0  0  0  0  0  0  0  0  0  0
    3.5106   -0.0957    0.0000 N   0  0  0  0  0  0  0  0  0  0  0  0
    4.1811   -0.8438    0.0000 N   0  0  0  0  0  0  0  0  0  0  0  0
    3.6765   -1.7090    0.0000 N   0  0  0  0  0  0  0  0  0  0  0  0
    2.6973   -1.4989    0.0000 N   0  0  0  0  0  0  0  0  0  0  0  0
    3.7189    0.8824    0.0000 C   0  0  0  0  0  0  0  0  0  0  0  0
   -1.9985    1.9711    0.0000 H   0  0  0  0  0  0  0  0  0  0  0  0
  1 22  1  0  0  0  0
  1 17  1  0  0  0  0
  1  2  1  0  0  0  0
  2  3  1  0  0  0  0
  3  4  1  6  0  0  0
  4  5  1  0  0  0  0
  5  6  1  0  0  0  0
  6  7  1  0  0  0  0
  7 11  1  0  0  0  0
  7  8  2  0  0  0  0
  8  9  1  0  0  0  0
  9 10  1  0  0  0  0
 10 11  2  0  0  0  0
 10 12  1  0  0  0  0
  6 13  2  0  0  0  0
 13 14  1  0  0  0  0
 14 15  1  0  0  0  0
  5 16  2  0  0  0  0
  3 17  1  0  0  0  0
 17 18  2  0  0  0  0
  2 19  1  0  0  0  0
 19 20  1  0  0  0  0
 20 21  1  0  0  0  0
 21 22  2  0  0  0  0
 22 23  1  0  0  0  0
 23 24  1  0  0  0  0
 23 25  2  0  0  0  0
 21 26  1  0  0  0  0
 26 27  1  0  0  0  0
 27 28  1  0  0  0  0
 28 32  2  0  0  0  0
 28 29  1  0  0  0  0
 29 30  1  0  0  0  0
 30 31  2  0  0  0  0
 31 32  1  0  0  0  0
 29 33  1  0  0  0  0
  2 34  1  6  0  0  0
M  END
>  <Name>
Cefmenoxime

>  <CAS #>
65085-01-0

>  <human Clearance (mL/min/kg)>
3.65

>  <Primary mechanism (metabolic, biliary or renal)>
renal

>  <seqId>
161.0

>  <Code (mechanism and clearance degree index)>
R1

>  < Five M1 and R1 test groups>
R1_3

>  <formamide>
0

>  <prodrug phosphates>
0

>  <VolSurf_V>
931.25

>  <VolSurf_S>
654.831

>  <VolSurf_R>
1.42212

>  <VolSurf_G>
1.692

>  <VolSurf_IW1>
0.0610447

>  <VolSurf_IW2>
0.126773

>  <VolSurf_IW3>
0.370913

>  <VolSurf_IW4>
0.566563

>  <VolSurf_ID1>
0.0277836

>  <VolSurf_ID2>
0.0399693

>  <VolSurf_ID3>
0.0633782

>  <VolSurf_ID4>
0.129111

>  <VolSurf_HL1>
5.43678

>  <VolSurf_HL2>
4.16872

>  <VolSurf_A>
3.2205

>  <VolSurf_CP>
0.913945

>  <VolSurf_POL>
44.967

>  <VolSurf_MW>
510.551

>  <VolSurf_FLEX>
2.61738

>  <VolSurf_FLEX_RB>
0.237944

>  <VolSurf_NCC>
1.0

>  <VolSurf_LOGP n-Oct>
-0.154

>  <VolSurf_LOGP c-Hex>
-5.862

>  <VolSurf_PSA>
234.22

>  <VolSurf_HSA>
420.611

>  <VolSurf_PSAR>
0.35768

>  <VolSurf_PHSAR>
0.556856

>  <VolSurf_LgD5>
-3.11892

>  <VolSurf_LgD6>
-3.1494

>  <VolSurf_LgD7>
-3.15264

>  <VolSurf_LgD7.5>
-3.15289

>  <VolSurf_LgD8>
-3.15297

>  <VolSurf_LgD9>
-3.15305

>  <VolSurf_LgD10>
-3.15354

>  <VolSurf_AUS7.4>
0.0

>  <VolSurf_%FU4>
0.0

>  <VolSurf_%FU5>
0.0

>  <VolSurf_%FU6>
0.0

>  <VolSurf_%FU7>
0.0

>  <VolSurf_%FU8>
0.0

>  <VolSurf_%FU9>
0.0

>  <VolSurf_%FU10>
0.0

>  <ID>
90

>  <MOKAID>
91

>  <Clearance Route>
renal

>  <PC1>
-3.97534

>  <PC2>
-1.45184

$$$$
Cefmetazole
  -OEChem-08301611272D

 31 33  0     1  0  0  0  0  0999 V2000
   -4.2429    0.1398    0.0000 C   0  0  0  0  0  0  0  0  0  0  0  0
   -3.7429    1.0058    0.0000 O   0  0  0  0  0  0  0  0  0  0  0  0
   -2.7429    1.0058    0.0000 C   0  0  2  0  0  0  0  0  0  0  0  0
   -2.7429    2.0058    0.0000 N   0  0  0  0  0  0  0  0  0  0  0  0
   -3.6089    2.5058    0.0000 C   0  0  0  0  0  0  0  0  0  0  0  0
   -4.4750    2.0058    0.0000 O   0  0  0  0  0  0  0  0  0  0  0  0
   -3.6089    3.5058    0.0000 C   0  0  0  0  0  0  0  0  0  0  0  0
   -4.4750    4.0058    0.0000 S   0  0  0  0  0  0  0  0  0  0  0  0
   -4.4749    5.0058    0.0000 C   0  0  0  0  0  0  0  0  0  0  0  0
   -5.3410    5.5058    0.0000 C   0  0  0  0  0  0  0  0  0  0  0  0
   -6.2070    6.0058    0.0000 N   0  0  0  0  0  0  0  0  0  0  0  0
   -1.7374    1.0058    0.0000 C   0  0  1  0  0  0  0  0  0  0  0  0
   -0.8713    1.5112    0.0000 S   0  0  0  0  0  0  0  0  0  0  0  0
    0.0001    1.0055    0.0000 C   0  0  0  0  0  0  0  0  0  0  0  0
    0.0000    0.0000    0.0000 C   0  0  0  0  0  0  0  0  0  0  0  0
   -0.8716   -0.4998    0.0000 C   0  0  0  0  0  0  0  0  0  0  0  0
   -1.7375    0.0003    0.0000 N   0  0  0  0  0  0  0  0  0  0  0  0
   -2.7429    0.0003    0.0000 C   0  0  0  0  0  0  0  0  0  0  0  0
   -3.4500   -0.7068    0.0000 O   0  0  0  0  0  0  0  0  0  0  0  0
   -0.8731   -1.4998    0.0000 C   0  0  0  0  0  0  0  0  0  0  0  0
   -1.7399   -1.9985    0.0000 O   0  0  0  0  0  0  0  0  0  0  0  0
   -0.0079   -2.0011    0.0000 O   0  0  0  0  0  0  0  0  0  0  0  0
    0.8653   -0.5013    0.0000 C   0  0  0  0  0  0  0  0  0  0  0  0
    1.7320   -0.0026    0.0000 S   0  0  0  0  0  0  0  0  0  0  0  0
    2.5973   -0.5040    0.0000 C   0  0  0  0  0  0  0  0  0  0  0  0
    2.6973   -1.4989    0.0000 N   0  0  0  0  0  0  0  0  0  0  0  0
    3.6765   -1.7090    0.0000 N   0  0  0  0  0  0  0  0  0  0  0  0
    4.1811   -0.8438    0.0000 N   0  0  0  0  0  0  0  0  0  0  0  0
    3.5106   -0.0957    0.0000 N   0  0  0  0  0  0  0  0  0  0  0  0
    3.7189    0.8824    0.0000 C   0  0  0  0  0  0  0  0  0  0  0  0
   -1.9985    1.9711    0.0000 H   0  0  0  0  0  0  0  0  0  0  0  0
  1  2  1  0  0  0  0
  3  2  1  6  0  0  0
  3 18  1  0  0  0  0
  3  4  1  1  0  0  0
  4  5  1  0  0  0  0
  5  6  2  0  0  0  0
  5  7  1  0  0  0  0
  7  8  1  0  0  0  0
  8  9  1  0  0  0  0
  9 10  1  0  0  0  0
 10 11  3  0  0  0  0
  3 12  1  0  0  0  0
 12 17  1  0  0  0  0
 12 13  1  0  0  0  0
 13 14  1  0  0  0  0
 14 15  1  0  0  0  0
 15 16  2  0  0  0  0
 16 17  1  0  0  0  0
 17 18  1  0  0  0  0
 18 19  2  0  0  0  0
 16 20  1  0  0  0  0
 20 21  2  0  0  0  0
 20 22  1  0  0  0  0
 15 23  1  0  0  0  0
 23 24  1  0  0  0  0
 24 25  1  0  0  0  0
 25 29  1  0  0  0  0
 25 26  2  0  0  0  0
 26 27  1  0  0  0  0
 27 28  2  0  0  0  0
 28 29  1  0  0  0  0
 29 30  1  0  0  0  0
 12 31  1  6  0  0  0
M  END
>  <Name>
Cefmetazole

>  <CAS #>
56796-20-4

>  <human Clearance (mL/min/kg)>
1.5

>  <Primary mechanism (metabolic, biliary or renal)>
renal

>  <seqId>
162.0

>  <Code (mechanism and clearance degree index)>
R1

>  < Five M1 and R1 test groups>
R1_2

>  <formamide>
0

>  <prodrug phosphates>
0

>  <VolSurf_V>
895.875

>  <VolSurf_S>
622.559

>  <VolSurf_R>
1.43902

>  <VolSurf_G>
1.63041

>  <VolSurf_IW1>
0.089949

>  <VolSurf_IW2>
0.175309

>  <VolSurf_IW3>
0.460106

>  <VolSurf_IW4>
0.867265

>  <VolSurf_ID1>
0.050722

>  <VolSurf_ID2>
0.0838336

>  <VolSurf_ID3>
0.122227

>  <VolSurf_ID4>
0.485109

>  <VolSurf_HL1>
4.0

>  <VolSurf_HL2>
3.58108

>  <VolSurf_A>
4.94359

>  <VolSurf_CP>
0.562284

>  <VolSurf_POL>
40.77

>  <VolSurf_MW>
470.526

>  <VolSurf_FLEX>
2.41547

>  <VolSurf_FLEX_RB>
0.201289

>  <VolSurf_NCC>
1.0

>  <VolSurf_LOGP n-Oct>
-1.351

>  <VolSurf_LOGP c-Hex>
-4.328

>  <VolSurf_PSA>
207.83

>  <VolSurf_HSA>
414.729

>  <VolSurf_PSAR>
0.333832

>  <VolSurf_PHSAR>
0.501123

>  <VolSurf_LgD5>
-3.43941

>  <VolSurf_LgD6>
-4.11483

>  <VolSurf_LgD7>
-4.31984

>  <VolSurf_LgD7.5>
-4.34024

>  <VolSurf_LgD8>
-4.34689

>  <VolSurf_LgD9>
-4.34969

>  <VolSurf_LgD10>
-4.35

>  <VolSurf_AUS7.4>
0.0

>  <VolSurf_%FU4>
6.7292

>  <VolSurf_%FU5>
0.716302

>  <VolSurf_%FU6>
0.0720949

>  <VolSurf_%FU7>
0.00721417

>  <VolSurf_%FU8>
7.21464E-4

>  <VolSurf_%FU9>
7.21464E-5

>  <VolSurf_%FU10>
7.21422E-6

>  <ID>
91

>  <MOKAID>
92

>  <Clearance Route>
renal

>  <PC1>
-4.23146

>  <PC2>
-0.361037

$$$$
Cefodizime
  -OEChem-08301611272D

 38 41  0     1  0  0  0  0  0999 V2000
   -3.6395    4.3519    0.0000 C   0  0  0  0  0  0  0  0  0  0  0  0
   -3.8983    3.3859    0.0000 O   0  0  0  0  0  0  0  0  0  0  0  0
   -4.8642    3.1271    0.0000 N   0  0  0  0  0  0  0  0  0  0  0  0
   -5.1230    2.1612    0.0000 C   0  0  0  0  0  0  0  0  0  0  0  0
   -4.4159    1.4541    0.0000 C   0  0  0  0  0  0  0  0  0  0  0  0
   -4.6748    0.4882    0.0000 O   0  0  0  0  0  0  0  0  0  0  0  0
   -3.4500    1.7129    0.0000 N   0  0  0  0  0  0  0  0  0  0  0  0
   -2.7429    1.0058    0.0000 C   0  0  1  0  0  0  0  0  0  0  0  0
   -1.7374    1.0058    0.0000 C   0  0  1  0  0  0  0  0  0  0  0  0
   -0.8713    1.5112    0.0000 S   0  0  0  0  0  0  0  0  0  0  0  0
    0.0001    1.0055    0.0000 C   0  0  0  0  0  0  0  0  0  0  0  0
   -0.0000    0.0000    0.0000 C   0  0  0  0  0  0  0  0  0  0  0  0
   -0.8716   -0.4998    0.0000 C   0  0  0  0  0  0  0  0  0  0  0  0
   -1.7375    0.0003    0.0000 N   0  0  0  0  0  0  0  0  0  0  0  0
   -2.7429    0.0003    0.0000 C   0  0  0  0  0  0  0  0  0  0  0  0
   -3.4500   -0.7068    0.0000 O   0  0  0  0  0  0  0  0  0  0  0  0
   -0.8731   -1.4998    0.0000 C   0  0  0  0  0  0  0  0  0  0  0  0
   -1.7399   -1.9985    0.0000 O   0  0  0  0  0  0  0  0  0  0  0  0
   -0.0079   -2.0011    0.0000 O   0  0  0  0  0  0  0  0  0  0  0  0
    0.8653   -0.5013    0.0000 C   0  0  0  0  0  0  0  0  0  0  0  0
    1.7320   -0.0026    0.0000 S   0  0  0  0  0  0  0  0  0  0  0  0
    2.5973   -0.5040    0.0000 C   0  0  0  0  0  0  0  0  0  0  0  0
    3.5134   -0.0988    0.0000 N   0  0  0  0  0  0  0  0  0  0  0  0
    4.1833   -0.8431    0.0000 C   0  0  0  0  0  0  0  0  0  0  0  0
    5.1780   -0.7401    0.0000 C   0  0  0  0  0  0  0  0  0  0  0  0
    3.6808   -1.7078    0.0000 C   0  0  0  0  0  0  0  0  0  0  0  0
    4.0877   -2.6212    0.0000 C   0  0  0  0  0  0  0  0  0  0  0  0
    5.0823   -2.7256    0.0000 C   0  0  0  0  0  0  0  0  0  0  0  0
    5.6699   -1.9164    0.0000 O   0  0  0  0  0  0  0  0  0  0  0  0
    5.4892   -3.6390    0.0000 O   0  0  0  0  0  0  0  0  0  0  0  0
    2.7017   -1.5030    0.0000 S   0  0  0  0  0  0  0  0  0  0  0  0
   -6.0890    1.9024    0.0000 C   0  0  0  0  0  0  0  0  0  0  0  0
   -6.4486    0.9692    0.0000 C   0  0  0  0  0  0  0  0  0  0  0  0
   -7.4477    1.0168    0.0000 S   0  0  0  0  0  0  0  0  0  0  0  0
   -7.7086    1.9868    0.0000 C   0  0  0  0  0  0  0  0  0  0  0  0
   -8.6422    2.3452    0.0000 N   0  0  0  0  0  0  0  0  0  0  0  0
   -6.8680    2.5315    0.0000 N   0  0  0  0  0  0  0  0  0  0  0  0
   -1.9985    1.9711    0.0000 H   0  0  0  0  0  0  0  0  0  0  0  0
  1  2  1  0  0  0  0
  2  3  1  0  0  0  0
  3  4  2  0  0  0  0
  4  5  1  0  0  0  0
  5  6  2  0  0  0  0
  5  7  1  0  0  0  0
  8  7  1  1  0  0  0
  8 15  1  0  0  0  0
  8  9  1  0  0  0  0
  9 14  1  0  0  0  0
  9 10  1  0  0  0  0
 10 11  1  0  0  0  0
 11 12  1  0  0  0  0
 12 13  2  0  0  0  0
 13 14  1  0  0  0  0
 14 15  1  0  0  0  0
 15 16  2  0  0  0  0
 13 17  1  0  0  0  0
 17 18  2  0  0  0  0
 17 19  1  0  0  0  0
 12 20  1  0  0  0  0
 20 21  1  0  0  0  0
 21 22  1  0  0  0  0
 22 31  1  0  0  0  0
 22 23  2  0  0  0  0
 23 24  1  0  0  0  0
 24 25  1  0  0  0  0
 24 26  2  0  0  0  0
 26 27  1  0  0  0  0
 27 28  1  0  0  0  0
 28 29  2  0  0  0  0
 28 30  1  0  0  0  0
 26 31  1  0  0  0  0
  4 32  1  0  0  0  0
 32 37  1  0  0  0  0
 32 33  2  0  0  0  0
 33 34  1  0  0  0  0
 34 35  1  0  0  0  0
 35 36  1  0  0  0  0
 35 37  2  0  0  0  0
  9 38  1  6  0  0  0
M  END
>  <Name>
Cefodizime

>  <CAS #>
69739-16-8

>  <human Clearance (mL/min/kg)>
0.61

>  <Primary mechanism (metabolic, biliary or renal)>
renal

>  <seqId>
163.0

>  <Code (mechanism and clearance degree index)>
R1

>  < Five M1 and R1 test groups>
R1_3

>  <formamide>
0

>  <prodrug phosphates>
0

>  <VolSurf_V>
1045.25

>  <VolSurf_S>
710.19

>  <VolSurf_R>
1.47179

>  <VolSurf_G>
1.70261

>  <VolSurf_IW1>
0.0376914

>  <VolSurf_IW2>
0.073493

>  <VolSurf_IW3>
0.198966

>  <VolSurf_IW4>
0.264494

>  <VolSurf_ID1>
0.0309322

>  <VolSurf_ID2>
0.061399

>  <VolSurf_ID3>
0.098546

>  <VolSurf_ID4>
0.081012

>  <VolSurf_HL1>
7.60137

>  <VolSurf_HL2>
6.33173

>  <VolSurf_A>
2.94941

>  <VolSurf_CP>
0.387035

>  <VolSurf_POL>
51.394

>  <VolSurf_MW>
582.653

>  <VolSurf_FLEX>
3.49914

>  <VolSurf_FLEX_RB>
0.269164

>  <VolSurf_NCC>
2.0

>  <VolSurf_LOGP n-Oct>
1.254

>  <VolSurf_LOGP c-Hex>
-6.482

>  <VolSurf_PSA>
263.84

>  <VolSurf_HSA>
446.35

>  <VolSurf_PSAR>
0.371506

>  <VolSurf_PHSAR>
0.591105

>  <VolSurf_LgD5>
-2.92176

>  <VolSurf_LgD6>
-3.89755

>  <VolSurf_LgD7>
-4.69998

>  <VolSurf_LgD7.5>
-4.9261

>  <VolSurf_LgD8>
-5.0318

>  <VolSurf_LgD9>
-5.08471

>  <VolSurf_LgD10>
-5.09045

>  <VolSurf_AUS7.4>
0.0

>  <VolSurf_%FU4>
0.0

>  <VolSurf_%FU5>
0.0

>  <VolSurf_%FU6>
0.0

>  <VolSurf_%FU7>
0.0

>  <VolSurf_%FU8>
0.0

>  <VolSurf_%FU9>
0.0

>  <VolSurf_%FU10>
0.0

>  <ID>
92

>  <MOKAID>
93

>  <Clearance Route>
possible billary

>  <PC1>
-4.91836

>  <PC2>
-2.4645900000000003

$$$$
Cefonicid
  -OEChem-08301611272D

 36 39  0     1  0  0  0  0  0999 V2000
   -1.7375    0.0003    0.0000 N   0  0  0  0  0  0  0  0  0  0  0  0
   -1.7374    1.0058    0.0000 C   0  0  1  0  0  0  0  0  0  0  0  0
   -2.7429    1.0058    0.0000 C   0  0  1  0  0  0  0  0  0  0  0  0
   -3.4500    1.7129    0.0000 N   0  0  0  0  0  0  0  0  0  0  0  0
   -4.4159    1.4541    0.0000 C   0  0  0  0  0  0  0  0  0  0  0  0
   -5.1230    2.1612    0.0000 C   0  0  1  0  0  0  0  0  0  0  0  0
   -6.0890    1.9024    0.0000 C   0  0  0  0  0  0  0  0  0  0  0  0
   -6.3463    0.9307    0.0000 C   0  0  0  0  0  0  0  0  0  0  0  0
   -7.3122    0.6718    0.0000 C   0  0  0  0  0  0  0  0  0  0  0  0
   -8.0235    1.3748    0.0000 C   0  0  0  0  0  0  0  0  0  0  0  0
   -7.7662    2.3465    0.0000 C   0  0  0  0  0  0  0  0  0  0  0  0
   -6.7976    2.6152    0.0000 C   0  0  0  0  0  0  0  0  0  0  0  0
   -4.8642    3.1271    0.0000 O   0  0  0  0  0  0  0  0  0  0  0  0
   -4.6748    0.4882    0.0000 O   0  0  0  0  0  0  0  0  0  0  0  0
   -2.7429    0.0003    0.0000 C   0  0  0  0  0  0  0  0  0  0  0  0
   -3.4500   -0.7068    0.0000 O   0  0  0  0  0  0  0  0  0  0  0  0
   -0.8713    1.5112    0.0000 S   0  0  0  0  0  0  0  0  0  0  0  0
    0.0001    1.0055    0.0000 C   0  0  0  0  0  0  0  0  0  0  0  0
    0.0000   -0.0000    0.0000 C   0  0  0  0  0  0  0  0  0  0  0  0
   -0.8716   -0.4998    0.0000 C   0  0  0  0  0  0  0  0  0  0  0  0
   -0.8731   -1.4998    0.0000 C   0  0  0  0  0  0  0  0  0  0  0  0
   -0.0079   -2.0011    0.0000 O   0  0  0  0  0  0  0  0  0  0  0  0
   -1.7399   -1.9985    0.0000 O   0  0  0  0  0  0  0  0  0  0  0  0
    0.8653   -0.5013    0.0000 C   0  0  0  0  0  0  0  0  0  0  0  0
    1.7320   -0.0026    0.0000 S   0  0  0  0  0  0  0  0  0  0  0  0
    2.5973   -0.5040    0.0000 C   0  0  0  0  0  0  0  0  0  0  0  0
    3.5106   -0.0957    0.0000 N   0  0  0  0  0  0  0  0  0  0  0  0
    4.1811   -0.8438    0.0000 N   0  0  0  0  0  0  0  0  0  0  0  0
    3.6765   -1.7090    0.0000 N   0  0  0  0  0  0  0  0  0  0  0  0
    2.6973   -1.4989    0.0000 N   0  0  0  0  0  0  0  0  0  0  0  0
    3.7189    0.8824    0.0000 C   0  0  0  0  0  0  0  0  0  0  0  0
    2.9760    1.5518    0.0000 S   0  0  0  0  0  0  0  0  0  0  0  0
    2.2332    2.2212    0.0000 O   0  0  0  0  0  0  0  0  0  0  0  0
    2.3066    0.8089    0.0000 O   0  0  0  0  0  0  0  0  0  0  0  0
    3.6455    2.2947    0.0000 O   0  0  0  0  0  0  0  0  0  0  0  0
   -1.9985    1.9711    0.0000 H   0  0  0  0  0  0  0  0  0  0  0  0
  1 20  1  0  0  0  0
  1 15  1  0  0  0  0
  1  2  1  0  0  0  0
  2  3  1  0  0  0  0
  3  4  1  6  0  0  0
  4  5  1  0  0  0  0
  5  6  1  0  0  0  0
  6  7  1  0  0  0  0
  7 12  2  0  0  0  0
  7  8  1  0  0  0  0
  8  9  2  0  0  0  0
  9 10  1  0  0  0  0
 10 11  2  0  0  0  0
 11 12  1  0  0  0  0
  6 13  1  1  0  0  0
  5 14  2  0  0  0  0
  3 15  1  0  0  0  0
 15 16  2  0  0  0  0
  2 17  1  0  0  0  0
 17 18  1  0  0  0  0
 18 19  1  0  0  0  0
 19 20  2  0  0  0  0
 20 21  1  0  0  0  0
 21 22  1  0  0  0  0
 21 23  2  0  0  0  0
 19 24  1  0  0  0  0
 24 25  1  0  0  0  0
 25 26  1  0  0  0  0
 26 30  2  0  0  0  0
 26 27  1  0  0  0  0
 27 28  1  0  0  0  0
 28 29  2  0  0  0  0
 29 30  1  0  0  0  0
 27 31  1  0  0  0  0
 31 32  1  0  0  0  0
 32 33  1  0  0  0  0
 32 34  2  0  0  0  0
 32 35  2  0  0  0  0
  2 36  1  6  0  0  0
M  END
>  <Name>
Cefonicid

>  <CAS #>
61270-58-4

>  <human Clearance (mL/min/kg)>
0.38

>  <Primary mechanism (metabolic, biliary or renal)>
renal

>  <seqId>
164.0

>  <Code (mechanism and clearance degree index)>
R1

>  < Five M1 and R1 test groups>
R1_3

>  <formamide>
0

>  <prodrug phosphates>
0

>  <VolSurf_V>
977.625

>  <VolSurf_S>
667.505

>  <VolSurf_R>
1.4646

>  <VolSurf_G>
1.65876

>  <VolSurf_IW1>
0.0582174

>  <VolSurf_IW2>
0.107378

>  <VolSurf_IW3>
0.176632

>  <VolSurf_IW4>
0.471973

>  <VolSurf_ID1>
0.0980803

>  <VolSurf_ID2>
0.0727309

>  <VolSurf_ID3>
0.121234

>  <VolSurf_ID4>
0.165383

>  <VolSurf_HL1>
19.8618

>  <VolSurf_HL2>
18.5

>  <VolSurf_A>
3.10766

>  <VolSurf_CP>
0.141164

>  <VolSurf_POL>
46.732

>  <VolSurf_MW>
540.55

>  <VolSurf_FLEX>
3.23607

>  <VolSurf_FLEX_RB>
0.323607

>  <VolSurf_NCC>
2.0

>  <VolSurf_LOGP n-Oct>
-1.474

>  <VolSurf_LOGP c-Hex>
-8.393

>  <VolSurf_PSA>
239.56

>  <VolSurf_HSA>
427.945

>  <VolSurf_PSAR>
0.358889

>  <VolSurf_PHSAR>
0.559792

>  <VolSurf_LgD5>
-6.62998

>  <VolSurf_LgD6>
-6.71365

>  <VolSurf_LgD7>
-6.72296

>  <VolSurf_LgD7.5>
-6.72369

>  <VolSurf_LgD8>
-6.72397

>  <VolSurf_LgD9>
-6.72478

>  <VolSurf_LgD10>
-6.73188

>  <VolSurf_AUS7.4>
0.0

>  <VolSurf_%FU4>
9.1341E-5

>  <VolSurf_%FU5>
9.49136E-7

>  <VolSurf_%FU6>
9.52861E-9

>  <VolSurf_%FU7>
9.53219E-11

>  <VolSurf_%FU8>
9.53087E-13

>  <VolSurf_%FU9>
9.51407E-15

>  <VolSurf_%FU10>
9.34891E-17

>  <ID>
93

>  <MOKAID>
94

>  <Clearance Route>
renal

>  <PC1>
-6.57625

>  <PC2>
-1.09901

$$$$
Cefoperazone
  -OEChem-08301611272D

 45 49  0     1  0  0  0  0  0999 V2000
   -3.5675    7.9666    0.0000 C   0  0  0  0  0  0  0  0  0  0  0  0
   -4.5334    7.7078    0.0000 C   0  0  0  0  0  0  0  0  0  0  0  0
   -4.7922    6.7419    0.0000 N   0  0  0  0  0  0  0  0  0  0  0  0
   -5.7614    6.4761    0.0000 C   0  0  0  0  0  0  0  0  0  0  0  0
   -6.0216    5.5053    0.0000 C   0  0  0  0  0  0  0  0  0  0  0  0
   -5.3125    4.8002    0.0000 N   0  0  0  0  0  0  0  0  0  0  0  0
   -5.5713    3.8342    0.0000 C   0  0  0  0  0  0  0  0  0  0  0  0
   -6.5373    3.5754    0.0000 O   0  0  0  0  0  0  0  0  0  0  0  0
   -4.8642    3.1271    0.0000 N   0  0  0  0  0  0  0  0  0  0  0  0
   -5.1230    2.1612    0.0000 C   0  0  1  0  0  0  0  0  0  0  0  0
   -4.4159    1.4541    0.0000 C   0  0  0  0  0  0  0  0  0  0  0  0
   -4.6748    0.4882    0.0000 O   0  0  0  0  0  0  0  0  0  0  0  0
   -3.4500    1.7129    0.0000 N   0  0  0  0  0  0  0  0  0  0  0  0
   -2.7429    1.0058    0.0000 C   0  0  1  0  0  0  0  0  0  0  0  0
   -1.7374    1.0058    0.0000 C   0  0  1  0  0  0  0  0  0  0  0  0
   -0.8713    1.5112    0.0000 S   0  0  0  0  0  0  0  0  0  0  0  0
    0.0001    1.0055    0.0000 C   0  0  0  0  0  0  0  0  0  0  0  0
    0.0000    0.0000    0.0000 C   0  0  0  0  0  0  0  0  0  0  0  0
   -0.8716   -0.4998    0.0000 C   0  0  0  0  0  0  0  0  0  0  0  0
   -1.7375    0.0003    0.0000 N   0  0  0  0  0  0  0  0  0  0  0  0
   -2.7429    0.0003    0.0000 C   0  0  0  0  0  0  0  0  0  0  0  0
   -3.4500   -0.7068    0.0000 O   0  0  0  0  0  0  0  0  0  0  0  0
   -0.8731   -1.4998    0.0000 C   0  0  0  0  0  0  0  0  0  0  0  0
   -1.7399   -1.9985    0.0000 O   0  0  0  0  0  0  0  0  0  0  0  0
   -0.0079   -2.0011    0.0000 O   0  0  0  0  0  0  0  0  0  0  0  0
    0.8653   -0.5013    0.0000 C   0  0  0  0  0  0  0  0  0  0  0  0
    1.7320   -0.0026    0.0000 S   0  0  0  0  0  0  0  0  0  0  0  0
    2.5973   -0.5040    0.0000 C   0  0  0  0  0  0  0  0  0  0  0  0
    2.6973   -1.4989    0.0000 N   0  0  0  0  0  0  0  0  0  0  0  0
    3.6765   -1.7090    0.0000 N   0  0  0  0  0  0  0  0  0  0  0  0
    4.1811   -0.8438    0.0000 N   0  0  0  0  0  0  0  0  0  0  0  0
    3.5106   -0.0957    0.0000 N   0  0  0  0  0  0  0  0  0  0  0  0
    3.7189    0.8824    0.0000 C   0  0  0  0  0  0  0  0  0  0  0  0
   -6.0890    1.9024    0.0000 C   0  0  0  0  0  0  0  0  0  0  0  0
   -6.3463    0.9307    0.0000 C   0  0  0  0  0  0  0  0  0  0  0  0
   -7.3122    0.6718    0.0000 C   0  0  0  0  0  0  0  0  0  0  0  0
   -8.0235    1.3748    0.0000 C   0  0  0  0  0  0  0  0  0  0  0  0
   -8.9882    1.1117    0.0000 O   0  0  0  0  0  0  0  0  0  0  0  0
   -7.7662    2.3465    0.0000 C   0  0  0  0  0  0  0  0  0  0  0  0
   -6.7976    2.6152    0.0000 C   0  0  0  0  0  0  0  0  0  0  0  0
   -4.3459    5.0563    0.0000 C   0  0  0  0  0  0  0  0  0  0  0  0
   -3.6397    4.3482    0.0000 O   0  0  0  0  0  0  0  0  0  0  0  0
   -4.0857    6.0272    0.0000 C   0  0  0  0  0  0  0  0  0  0  0  0
   -3.1191    6.2832    0.0000 O   0  0  0  0  0  0  0  0  0  0  0  0
   -1.9985    1.9711    0.0000 H   0  0  0  0  0  0  0  0  0  0  0  0
  1  2  1  0  0  0  0
  2  3  1  0  0  0  0
  3 43  1  0  0  0  0
  3  4  1  0  0  0  0
  4  5  1  0  0  0  0
  5  6  1  0  0  0  0
  6  7  1  0  0  0  0
  7  8  2  0  0  0  0
  7  9  1  0  0  0  0
  9 10  1  0  0  0  0
 10 11  1  1  0  0  0
 11 12  2  0  0  0  0
 11 13  1  0  0  0  0
 14 13  1  1  0  0  0
 14 21  1  0  0  0  0
 14 15  1  0  0  0  0
 15 20  1  0  0  0  0
 15 16  1  0  0  0  0
 16 17  1  0  0  0  0
 17 18  1  0  0  0  0
 18 19  2  0  0  0  0
 19 20  1  0  0  0  0
 20 21  1  0  0  0  0
 21 22  2  0  0  0  0
 19 23  1  0  0  0  0
 23 24  2  0  0  0  0
 23 25  1  0  0  0  0
 18 26  1  0  0  0  0
 26 27  1  0  0  0  0
 27 28  1  0  0  0  0
 28 32  1  0  0  0  0
 28 29  2  0  0  0  0
 29 30  1  0  0  0  0
 30 31  2  0  0  0  0
 31 32  1  0  0  0  0
 32 33  1  0  0  0  0
 10 34  1  0  0  0  0
 34 40  2  0  0  0  0
 34 35  1  0  0  0  0
 35 36  2  0  0  0  0
 36 37  1  0  0  0  0
 37 38  1  0  0  0  0
 37 39  2  0  0  0  0
 39 40  1  0  0  0  0
  6 41  1  0  0  0  0
 41 42  2  0  0  0  0
 41 43  1  0  0  0  0
 43 44  2  0  0  0  0
 15 45  1  6  0  0  0
M  END
>  <Name>
Cefoperazone

>  <CAS #>
62893-19-0

>  <human Clearance (mL/min/kg)>
1.3

>  <Primary mechanism (metabolic, biliary or renal)>
biliary

>  <seqId>
165.0

>  <Code (mechanism and clearance degree index)>
B1

>  < Five M1 and R1 test groups>
33

>  <formamide>
0

>  <prodrug phosphates>
0

>  <VolSurf_V>
1215.0

>  <VolSurf_S>
818.932

>  <VolSurf_R>
1.48364

>  <VolSurf_G>
1.81372

>  <VolSurf_IW1>
0.067569

>  <VolSurf_IW2>
0.14055

>  <VolSurf_IW3>
0.294956

>  <VolSurf_IW4>
0.412849

>  <VolSurf_ID1>
0.0363853

>  <VolSurf_ID2>
0.0497656

>  <VolSurf_ID3>
0.0641667

>  <VolSurf_ID4>
0.0584956

>  <VolSurf_HL1>
4.79828

>  <VolSurf_HL2>
4.03896

>  <VolSurf_A>
4.23145

>  <VolSurf_CP>
0.650958

>  <VolSurf_POL>
58.095

>  <VolSurf_MW>
644.659

>  <VolSurf_FLEX>
3.72241

>  <VolSurf_FLEX_RB>
0.265886

>  <VolSurf_NCC>
1.0

>  <VolSurf_LOGP n-Oct>
-1.233

>  <VolSurf_LOGP c-Hex>
-8.784

>  <VolSurf_PSA>
249.23

>  <VolSurf_HSA>
569.702

>  <VolSurf_PSAR>
0.304335

>  <VolSurf_PHSAR>
0.437475

>  <VolSurf_LgD5>
-3.50536

>  <VolSurf_LgD6>
-4.07724

>  <VolSurf_LgD7>
-4.23349

>  <VolSurf_LgD7.5>
-4.28632

>  <VolSurf_LgD8>
-4.39737

>  <VolSurf_LgD9>
-4.97909

>  <VolSurf_LgD10>
-5.81421

>  <VolSurf_AUS7.4>
0.0

>  <VolSurf_%FU4>
4.18199

>  <VolSurf_%FU5>
0.434371

>  <VolSurf_%FU6>
0.0434226

>  <VolSurf_%FU7>
0.00416716

>  <VolSurf_%FU8>
2.96179E-4

>  <VolSurf_%FU9>
7.60838E-6

>  <VolSurf_%FU10>
9.02372E-8

>  <ID>
94

>  <MOKAID>
95

>  <Clearance Route>
possible billary

>  <PC1>
-4.91936

>  <PC2>
-3.16295

$$$$
Ceforanide
  -OEChem-08301611272D

 36 39  0     1  0  0  0  0  0999 V2000
   -6.0261    5.5063    0.0000 N   0  0  0  0  0  0  0  0  0  0  0  0
   -5.3179    4.8003    0.0000 C   0  0  0  0  0  0  0  0  0  0  0  0
   -4.3524    5.0605    0.0000 C   0  0  0  0  0  0  0  0  0  0  0  0
   -4.0936    6.0265    0.0000 C   0  0  0  0  0  0  0  0  0  0  0  0
   -3.1291    6.2910    0.0000 C   0  0  0  0  0  0  0  0  0  0  0  0
   -2.4163    5.5823    0.0000 C   0  0  0  0  0  0  0  0  0  0  0  0
   -2.6678    4.6091    0.0000 C   0  0  0  0  0  0  0  0  0  0  0  0
   -3.6395    4.3519    0.0000 C   0  0  0  0  0  0  0  0  0  0  0  0
   -3.8983    3.3859    0.0000 C   0  0  0  0  0  0  0  0  0  0  0  0
   -3.1912    2.6788    0.0000 C   0  0  0  0  0  0  0  0  0  0  0  0
   -2.2253    2.9377    0.0000 O   0  0  0  0  0  0  0  0  0  0  0  0
   -3.4500    1.7129    0.0000 N   0  0  0  0  0  0  0  0  0  0  0  0
   -2.7429    1.0058    0.0000 C   0  0  1  0  0  0  0  0  0  0  0  0
   -1.7374    1.0058    0.0000 C   0  0  1  0  0  0  0  0  0  0  0  0
   -0.8713    1.5112    0.0000 S   0  0  0  0  0  0  0  0  0  0  0  0
    0.0001    1.0055    0.0000 C   0  0  0  0  0  0  0  0  0  0  0  0
   -0.0000   -0.0000    0.0000 C   0  0  0  0  0  0  0  0  0  0  0  0
   -0.8716   -0.4998    0.0000 C   0  0  0  0  0  0  0  0  0  0  0  0
   -1.7375    0.0003    0.0000 N   0  0  0  0  0  0  0  0  0  0  0  0
   -2.7429    0.0003    0.0000 C   0  0  0  0  0  0  0  0  0  0  0  0
   -3.4500   -0.7068    0.0000 O   0  0  0  0  0  0  0  0  0  0  0  0
   -0.8731   -1.4998    0.0000 C   0  0  0  0  0  0  0  0  0  0  0  0
   -1.7399   -1.9985    0.0000 O   0  0  0  0  0  0  0  0  0  0  0  0
   -0.0079   -2.0011    0.0000 O   0  0  0  0  0  0  0  0  0  0  0  0
    0.8653   -0.5013    0.0000 C   0  0  0  0  0  0  0  0  0  0  0  0
    1.7320   -0.0026    0.0000 S   0  0  0  0  0  0  0  0  0  0  0  0
    2.5973   -0.5040    0.0000 C   0  0  0  0  0  0  0  0  0  0  0  0
    2.6973   -1.4989    0.0000 N   0  0  0  0  0  0  0  0  0  0  0  0
    3.6765   -1.7090    0.0000 N   0  0  0  0  0  0  0  0  0  0  0  0
    4.1811   -0.8438    0.0000 N   0  0  0  0  0  0  0  0  0  0  0  0
    3.5106   -0.0957    0.0000 N   0  0  0  0  0  0  0  0  0  0  0  0
    3.7189    0.8824    0.0000 C   0  0  0  0  0  0  0  0  0  0  0  0
    2.9760    1.5518    0.0000 C   0  0  0  0  0  0  0  0  0  0  0  0
    2.0249    1.2432    0.0000 O   0  0  0  0  0  0  0  0  0  0  0  0
    3.1843    2.5299    0.0000 O   0  0  0  0  0  0  0  0  0  0  0  0
   -1.9985    1.9711    0.0000 H   0  0  0  0  0  0  0  0  0  0  0  0
  1  2  1  0  0  0  0
  2  3  1  0  0  0  0
  3  8  2  0  0  0  0
  3  4  1  0  0  0  0
  4  5  2  0  0  0  0
  5  6  1  0  0  0  0
  6  7  2  0  0  0  0
  7  8  1  0  0  0  0
  8  9  1  0  0  0  0
  9 10  1  0  0  0  0
 10 11  2  0  0  0  0
 10 12  1  0  0  0  0
 13 12  1  1  0  0  0
 13 20  1  0  0  0  0
 13 14  1  0  0  0  0
 14 19  1  0  0  0  0
 14 15  1  0  0  0  0
 15 16  1  0  0  0  0
 16 17  1  0  0  0  0
 17 18  2  0  0  0  0
 18 19  1  0  0  0  0
 19 20  1  0  0  0  0
 20 21  2  0  0  0  0
 18 22  1  0  0  0  0
 22 23  2  0  0  0  0
 22 24  1  0  0  0  0
 17 25  1  0  0  0  0
 25 26  1  0  0  0  0
 26 27  1  0  0  0  0
 27 31  1  0  0  0  0
 27 28  2  0  0  0  0
 28 29  1  0  0  0  0
 29 30  2  0  0  0  0
 30 31  1  0  0  0  0
 31 32  1  0  0  0  0
 32 33  1  0  0  0  0
 33 34  2  0  0  0  0
 33 35  1  0  0  0  0
 14 36  1  6  0  0  0
M  END
>  <Name>
Ceforanide

>  <CAS #>
60925-61-3

>  <human Clearance (mL/min/kg)>
0.66

>  <Primary mechanism (metabolic, biliary or renal)>
renal

>  <seqId>
166.0

>  <Code (mechanism and clearance degree index)>
R1

>  < Five M1 and R1 test groups>
R1_5

>  <formamide>
0

>  <prodrug phosphates>
0

>  <VolSurf_V>
991.5

>  <VolSurf_S>
674.077

>  <VolSurf_R>
1.4709

>  <VolSurf_G>
1.65976

>  <VolSurf_IW1>
0.0946164

>  <VolSurf_IW2>
0.185542

>  <VolSurf_IW3>
0.349875

>  <VolSurf_IW4>
0.418252

>  <VolSurf_ID1>
0.10703

>  <VolSurf_ID2>
0.182511

>  <VolSurf_ID3>
0.263472

>  <VolSurf_ID4>
0.346285

>  <VolSurf_HL1>
11.942

>  <VolSurf_HL2>
13.3363

>  <VolSurf_A>
8.20158

>  <VolSurf_CP>
0.0811094

>  <VolSurf_POL>
48.631

>  <VolSurf_MW>
518.546

>  <VolSurf_FLEX>
3.05536

>  <VolSurf_FLEX_RB>
0.27776

>  <VolSurf_NCC>
3.0

>  <VolSurf_LOGP n-Oct>
-1.281

>  <VolSurf_LOGP c-Hex>
-6.162

>  <VolSurf_PSA>
240.47

>  <VolSurf_HSA>
433.607

>  <VolSurf_PSAR>
0.35674

>  <VolSurf_PHSAR>
0.554581

>  <VolSurf_LgD5>
-2.70689

>  <VolSurf_LgD6>
-3.65637

>  <VolSurf_LgD7>
-4.46065

>  <VolSurf_LgD7.5>
-4.69122

>  <VolSurf_LgD8>
-4.80323

>  <VolSurf_LgD9>
-4.90774

>  <VolSurf_LgD10>
-5.23375

>  <VolSurf_AUS7.4>
0.0

>  <VolSurf_%FU4>
0.0

>  <VolSurf_%FU5>
0.0

>  <VolSurf_%FU6>
0.0

>  <VolSurf_%FU7>
0.0

>  <VolSurf_%FU8>
0.0

>  <VolSurf_%FU9>
0.0

>  <VolSurf_%FU10>
0.0

>  <ID>
95

>  <MOKAID>
96

>  <Clearance Route>
renal

>  <PC1>
-4.8365599999999995

>  <PC2>
-0.720571

$$$$
Cefoselis
  -OEChem-08301611272D

 36 39  0     1  0  0  0  0  0999 V2000
   -5.3125    4.8002    0.0000 C   0  0  0  0  0  0  0  0  0  0  0  0
   -5.5713    3.8342    0.0000 O   0  0  0  0  0  0  0  0  0  0  0  0
   -4.8642    3.1271    0.0000 N   0  0  0  0  0  0  0  0  0  0  0  0
   -5.1230    2.1612    0.0000 C   0  0  0  0  0  0  0  0  0  0  0  0
   -4.4159    1.4541    0.0000 C   0  0  0  0  0  0  0  0  0  0  0  0
   -4.6748    0.4882    0.0000 O   0  0  0  0  0  0  0  0  0  0  0  0
   -3.4500    1.7129    0.0000 N   0  0  0  0  0  0  0  0  0  0  0  0
   -2.7429    1.0058    0.0000 C   0  0  1  0  0  0  0  0  0  0  0  0
   -1.7374    1.0058    0.0000 C   0  0  1  0  0  0  0  0  0  0  0  0
   -0.8713    1.5112    0.0000 S   0  0  0  0  0  0  0  0  0  0  0  0
    0.0001    1.0055    0.0000 C   0  0  0  0  0  0  0  0  0  0  0  0
    0.0000    0.0000    0.0000 C   0  0  0  0  0  0  0  0  0  0  0  0
   -0.8716   -0.4998    0.0000 C   0  0  0  0  0  0  0  0  0  0  0  0
   -1.7375    0.0003    0.0000 N   0  0  0  0  0  0  0  0  0  0  0  0
   -2.7429    0.0003    0.0000 C   0  0  0  0  0  0  0  0  0  0  0  0
   -3.4500   -0.7068    0.0000 O   0  0  0  0  0  0  0  0  0  0  0  0
   -0.8731   -1.4998    0.0000 C   0  0  0  0  0  0  0  0  0  0  0  0
   -0.0079   -2.0011    0.0000 O   0  5  0  0  0  0  0  0  0  0  0  0
   -1.7399   -1.9985    0.0000 O   0  0  0  0  0  0  0  0  0  0  0  0
    0.8653   -0.5013    0.0000 C   0  0  0  0  0  0  0  0  0  0  0  0
    1.7320   -0.0026    0.0000 N   0  3  0  0  0  0  0  0  0  0  0  0
    1.8392    0.9933    0.0000 C   0  0  0  0  0  0  0  0  0  0  0  0
    2.8189    1.2014    0.0000 C   0  0  0  0  0  0  0  0  0  0  0  0
    3.3165    0.3340    0.0000 C   0  0  0  0  0  0  0  0  0  0  0  0
    4.3110    0.2298    0.0000 N   0  0  0  0  0  0  0  0  0  0  0  0
    2.6496   -0.4118    0.0000 N   0  0  0  0  0  0  0  0  0  0  0  0
    2.8589   -1.3896    0.0000 C   0  0  0  0  0  0  0  0  0  0  0  0
    3.8104   -1.6973    0.0000 C   0  0  0  0  0  0  0  0  0  0  0  0
    4.0197   -2.6751    0.0000 O   0  0  0  0  0  0  0  0  0  0  0  0
   -6.0890    1.9024    0.0000 C   0  0  0  0  0  0  0  0  0  0  0  0
   -6.4486    0.9692    0.0000 C   0  0  0  0  0  0  0  0  0  0  0  0
   -7.4477    1.0168    0.0000 S   0  0  0  0  0  0  0  0  0  0  0  0
   -7.7086    1.9868    0.0000 C   0  0  0  0  0  0  0  0  0  0  0  0
   -6.8680    2.5315    0.0000 N   0  0  0  0  0  0  0  0  0  0  0  0
   -8.6422    2.3452    0.0000 N   0  0  0  0  0  0  0  0  0  0  0  0
   -1.9985    1.9711    0.0000 H   0  0  0  0  0  0  0  0  0  0  0  0
  1  2  1  0  0  0  0
  2  3  1  0  0  0  0
  3  4  2  0  0  0  0
  4  5  1  0  0  0  0
  5  6  2  0  0  0  0
  5  7  1  0  0  0  0
  8  7  1  1  0  0  0
  8 15  1  0  0  0  0
  8  9  1  0  0  0  0
  9 14  1  0  0  0  0
  9 10  1  0  0  0  0
 10 11  1  0  0  0  0
 11 12  1  0  0  0  0
 12 13  2  0  0  0  0
 13 14  1  0  0  0  0
 14 15  1  0  0  0  0
 15 16  2  0  0  0  0
 13 17  1  0  0  0  0
 17 18  1  0  0  0  0
 17 19  2  0  0  0  0
 12 20  1  0  0  0  0
 20 21  1  0  0  0  0
 21 26  1  0  0  0  0
 21 22  2  0  0  0  0
 22 23  1  0  0  0  0
 23 24  2  0  0  0  0
 24 25  1  0  0  0  0
 24 26  1  0  0  0  0
 26 27  1  0  0  0  0
 27 28  1  0  0  0  0
 28 29  1  0  0  0  0
  4 30  1  0  0  0  0
 30 34  1  0  0  0  0
 30 31  2  0  0  0  0
 31 32  1  0  0  0  0
 32 33  1  0  0  0  0
 33 34  2  0  0  0  0
 33 35  1  0  0  0  0
  9 36  1  6  0  0  0
M  CHG  2  18  -1  21   1
M  END
>  <Name>
Cefoselis

>  <CAS #>
122841-10-5

>  <human Clearance (mL/min/kg)>
1.77

>  <Primary mechanism (metabolic, biliary or renal)>
renal

>  <seqId>
167.0

>  <Code (mechanism and clearance degree index)>
R1

>  < Five M1 and R1 test groups>
R1_3

>  <formamide>
0

>  <prodrug phosphates>
0

>  <VolSurf_V>
962.25

>  <VolSurf_S>
643.539

>  <VolSurf_R>
1.49525

>  <VolSurf_G>
1.59532

>  <VolSurf_IW1>
0.0380484

>  <VolSurf_IW2>
0.0783093

>  <VolSurf_IW3>
0.303859

>  <VolSurf_IW4>
0.628148

>  <VolSurf_ID1>
0.0209541

>  <VolSurf_ID2>
0.0581898

>  <VolSurf_ID3>
0.103

>  <VolSurf_ID4>
0.13393

>  <VolSurf_HL1>
5.48148

>  <VolSurf_HL2>
4.7931

>  <VolSurf_A>
3.58929

>  <VolSurf_CP>
0.547793

>  <VolSurf_POL>
47.091

>  <VolSurf_MW>
522.558

>  <VolSurf_FLEX>
2.05905

>  <VolSurf_FLEX_RB>
0.158388

>  <VolSurf_NCC>
2.0

>  <VolSurf_LOGP n-Oct>
-1.925

>  <VolSurf_LOGP c-Hex>
-8.281

>  <VolSurf_PSA>
235.14

>  <VolSurf_HSA>
408.399

>  <VolSurf_PSAR>
0.365386

>  <VolSurf_PHSAR>
0.575761

>  <VolSurf_LgD5>
-4.23109

>  <VolSurf_LgD6>
-4.22509

>  <VolSurf_LgD7>
-4.225

>  <VolSurf_LgD7.5>
-4.225

>  <VolSurf_LgD8>
-4.225

>  <VolSurf_LgD9>
-4.225

>  <VolSurf_LgD10>
-4.225

>  <VolSurf_AUS7.4>
0.0

>  <VolSurf_%FU4>
0.0

>  <VolSurf_%FU5>
0.0

>  <VolSurf_%FU6>
0.0

>  <VolSurf_%FU7>
0.0

>  <VolSurf_%FU8>
0.0

>  <VolSurf_%FU9>
0.0

>  <VolSurf_%FU10>
0.0

>  <ID>
96

>  <MOKAID>
97

>  <Clearance Route>
renal

>  <PC1>
-5.21916

>  <PC2>
-1.44638

$$$$
Cefotetan
  -OEChem-08301611272D

 37 40  0     1  0  0  0  0  0999 V2000
   -4.2429    0.1398    0.0000 C   0  0  0  0  0  0  0  0  0  0  0  0
   -3.7429    1.0058    0.0000 O   0  0  0  0  0  0  0  0  0  0  0  0
   -2.7429    1.0058    0.0000 C   0  0  2  0  0  0  0  0  0  0  0  0
   -2.7429    2.0058    0.0000 N   0  0  0  0  0  0  0  0  0  0  0  0
   -3.6089    2.5058    0.0000 C   0  0  0  0  0  0  0  0  0  0  0  0
   -4.4750    2.0058    0.0000 O   0  0  0  0  0  0  0  0  0  0  0  0
   -3.6089    3.5058    0.0000 C   0  0  0  0  0  0  0  0  0  0  0  0
   -2.9018    4.2129    0.0000 S   0  0  0  0  0  0  0  0  0  0  0  0
   -3.6089    4.9200    0.0000 C   0  0  0  0  0  0  0  0  0  0  0  0
   -3.6089    5.9200    0.0000 C   0  0  0  0  0  0  0  0  0  0  0  0
   -4.4750    6.4200    0.0000 C   0  0  0  0  0  0  0  0  0  0  0  0
   -4.4749    7.4200    0.0000 O   0  0  0  0  0  0  0  0  0  0  0  0
   -5.3410    5.9200    0.0000 N   0  0  0  0  0  0  0  0  0  0  0  0
   -2.7429    6.4200    0.0000 C   0  0  0  0  0  0  0  0  0  0  0  0
   -2.7429    7.4200    0.0000 O   0  0  0  0  0  0  0  0  0  0  0  0
   -1.8769    5.9200    0.0000 O   0  0  0  0  0  0  0  0  0  0  0  0
   -4.3160    4.2129    0.0000 S   0  0  0  0  0  0  0  0  0  0  0  0
   -1.7374    1.0058    0.0000 C   0  0  1  0  0  0  0  0  0  0  0  0
   -0.8713    1.5112    0.0000 S   0  0  0  0  0  0  0  0  0  0  0  0
    0.0001    1.0055    0.0000 C   0  0  0  0  0  0  0  0  0  0  0  0
    0.0000    0.0000    0.0000 C   0  0  0  0  0  0  0  0  0  0  0  0
   -0.8716   -0.4998    0.0000 C   0  0  0  0  0  0  0  0  0  0  0  0
   -1.7375    0.0003    0.0000 N   0  0  0  0  0  0  0  0  0  0  0  0
   -2.7429    0.0003    0.0000 C   0  0  0  0  0  0  0  0  0  0  0  0
   -3.4500   -0.7068    0.0000 O   0  0  0  0  0  0  0  0  0  0  0  0
   -0.8731   -1.4998    0.0000 C   0  0  0  0  0  0  0  0  0  0  0  0
   -1.7399   -1.9985    0.0000 O   0  0  0  0  0  0  0  0  0  0  0  0
   -0.0079   -2.0011    0.0000 O   0  0  0  0  0  0  0  0  0  0  0  0
    0.8653   -0.5013    0.0000 C   0  0  0  0  0  0  0  0  0  0  0  0
    1.7320   -0.0026    0.0000 S   0  0  0  0  0  0  0  0  0  0  0  0
    2.5973   -0.5040    0.0000 C   0  0  0  0  0  0  0  0  0  0  0  0
    2.6973   -1.4989    0.0000 N   0  0  0  0  0  0  0  0  0  0  0  0
    3.6765   -1.7090    0.0000 N   0  0  0  0  0  0  0  0  0  0  0  0
    4.1811   -0.8438    0.0000 N   0  0  0  0  0  0  0  0  0  0  0  0
    3.5106   -0.0957    0.0000 N   0  0  0  0  0  0  0  0  0  0  0  0
    3.7189    0.8824    0.0000 C   0  0  0  0  0  0  0  0  0  0  0  0
   -1.9985    1.9711    0.0000 H   0  0  0  0  0  0  0  0  0  0  0  0
  1  2  1  0  0  0  0
  3  2  1  6  0  0  0
  3 24  1  0  0  0  0
  3  4  1  1  0  0  0
  4  5  1  0  0  0  0
  5  6  2  0  0  0  0
  5  7  1  0  0  0  0
  7 17  1  0  0  0  0
  7  8  1  0  0  0  0
  8  9  1  0  0  0  0
  9 10  2  0  0  0  0
 10 11  1  0  0  0  0
 11 12  2  0  0  0  0
 11 13  1  0  0  0  0
 10 14  1  0  0  0  0
 14 15  2  0  0  0  0
 14 16  1  0  0  0  0
  9 17  1  0  0  0  0
  3 18  1  0  0  0  0
 18 23  1  0  0  0  0
 18 19  1  0  0  0  0
 19 20  1  0  0  0  0
 20 21  1  0  0  0  0
 21 22  2  0  0  0  0
 22 23  1  0  0  0  0
 23 24  1  0  0  0  0
 24 25  2  0  0  0  0
 22 26  1  0  0  0  0
 26 27  2  0  0  0  0
 26 28  1  0  0  0  0
 21 29  1  0  0  0  0
 29 30  1  0  0  0  0
 30 31  1  0  0  0  0
 31 35  1  0  0  0  0
 31 32  2  0  0  0  0
 32 33  1  0  0  0  0
 33 34  2  0  0  0  0
 34 35  1  0  0  0  0
 35 36  1  0  0  0  0
 18 37  1  6  0  0  0
M  END
>  <Name>
Cefotetan

>  <CAS #>
69712-56-7

>  <human Clearance (mL/min/kg)>
0.42

>  <Primary mechanism (metabolic, biliary or renal)>
renal

>  <seqId>
169.0

>  <Code (mechanism and clearance degree index)>
R1

>  < Five M1 and R1 test groups>
R1_4

>  <formamide>
0

>  <prodrug phosphates>
0

>  <VolSurf_V>
987.625

>  <VolSurf_S>
674.578

>  <VolSurf_R>
1.46406

>  <VolSurf_G>
1.66813

>  <VolSurf_IW1>
0.0442387

>  <VolSurf_IW2>
0.0756521

>  <VolSurf_IW3>
0.194819

>  <VolSurf_IW4>
0.336994

>  <VolSurf_ID1>
0.0598462

>  <VolSurf_ID2>
0.171653

>  <VolSurf_ID3>
0.325751

>  <VolSurf_ID4>
0.443446

>  <VolSurf_HL1>
10.7692

>  <VolSurf_HL2>
9.5443

>  <VolSurf_A>
5.00847

>  <VolSurf_CP>
0.114911

>  <VolSurf_POL>
46.645

>  <VolSurf_MW>
573.603

>  <VolSurf_FLEX>
2.32121

>  <VolSurf_FLEX_RB>
0.193434

>  <VolSurf_NCC>
2.0

>  <VolSurf_LOGP n-Oct>
-1.847

>  <VolSurf_LOGP c-Hex>
-6.835

>  <VolSurf_PSA>
285.02

>  <VolSurf_HSA>
389.558

>  <VolSurf_PSAR>
0.422516

>  <VolSurf_PHSAR>
0.73165

>  <VolSurf_LgD5>
-5.53437

>  <VolSurf_LgD6>
-6.92112

>  <VolSurf_LgD7>
-7.08901

>  <VolSurf_LgD7.5>
-7.09479

>  <VolSurf_LgD8>
-7.09634

>  <VolSurf_LgD9>
-7.09707

>  <VolSurf_LgD10>
-7.09831

>  <VolSurf_AUS7.4>
0.0

>  <VolSurf_%FU4>
1.52273

>  <VolSurf_%FU5>
0.0191546

>  <VolSurf_%FU6>
1.96273E-4

>  <VolSurf_%FU7>
1.96754E-6

>  <VolSurf_%FU8>
1.96797E-8

>  <VolSurf_%FU9>
1.96744E-10

>  <VolSurf_%FU10>
1.9617E-12

>  <ID>
97

>  <MOKAID>
98

>  <Clearance Route>
renal

>  <PC1>
-6.75155

>  <PC2>
-0.823102

$$$$
Cefoxitin
  -OEChem-08301611272D

 29 31  0     1  0  0  0  0  0999 V2000
   -4.2429    0.1398    0.0000 C   0  0  0  0  0  0  0  0  0  0  0  0
   -3.7429    1.0058    0.0000 O   0  0  0  0  0  0  0  0  0  0  0  0
   -2.7429    1.0058    0.0000 C   0  0  2  0  0  0  0  0  0  0  0  0
   -2.7429    2.0058    0.0000 N   0  0  0  0  0  0  0  0  0  0  0  0
   -3.6089    2.5058    0.0000 C   0  0  0  0  0  0  0  0  0  0  0  0
   -4.4750    2.0058    0.0000 O   0  0  0  0  0  0  0  0  0  0  0  0
   -3.6089    3.5058    0.0000 C   0  0  0  0  0  0  0  0  0  0  0  0
   -4.4750    4.0058    0.0000 C   0  0  0  0  0  0  0  0  0  0  0  0
   -5.3904    3.5993    0.0000 C   0  0  0  0  0  0  0  0  0  0  0  0
   -6.0616    4.3426    0.0000 C   0  0  0  0  0  0  0  0  0  0  0  0
   -5.5605    5.2080    0.0000 C   0  0  0  0  0  0  0  0  0  0  0  0
   -4.5809    5.0048    0.0000 S   0  0  0  0  0  0  0  0  0  0  0  0
   -1.7374    1.0058    0.0000 C   0  0  1  0  0  0  0  0  0  0  0  0
   -0.8713    1.5112    0.0000 S   0  0  0  0  0  0  0  0  0  0  0  0
    0.0001    1.0055    0.0000 C   0  0  0  0  0  0  0  0  0  0  0  0
    0.0000    0.0000    0.0000 C   0  0  0  0  0  0  0  0  0  0  0  0
   -0.8716   -0.4998    0.0000 C   0  0  0  0  0  0  0  0  0  0  0  0
   -1.7375    0.0003    0.0000 N   0  0  0  0  0  0  0  0  0  0  0  0
   -2.7429    0.0003    0.0000 C   0  0  0  0  0  0  0  0  0  0  0  0
   -3.4500   -0.7068    0.0000 O   0  0  0  0  0  0  0  0  0  0  0  0
   -0.8731   -1.4998    0.0000 C   0  0  0  0  0  0  0  0  0  0  0  0
   -1.7399   -1.9985    0.0000 O   0  0  0  0  0  0  0  0  0  0  0  0
   -0.0079   -2.0011    0.0000 O   0  0  0  0  0  0  0  0  0  0  0  0
    0.8653   -0.5013    0.0000 C   0  0  0  0  0  0  0  0  0  0  0  0
    1.7320   -0.0026    0.0000 O   0  0  0  0  0  0  0  0  0  0  0  0
    2.5973   -0.5040    0.0000 C   0  0  0  0  0  0  0  0  0  0  0  0
    2.5958   -1.5040    0.0000 O   0  0  0  0  0  0  0  0  0  0  0  0
    3.4641   -0.0053    0.0000 N   0  0  0  0  0  0  0  0  0  0  0  0
   -1.9985    1.9711    0.0000 H   0  0  0  0  0  0  0  0  0  0  0  0
  1  2  1  0  0  0  0
  3  2  1  6  0  0  0
  3 19  1  0  0  0  0
  3  4  1  1  0  0  0
  4  5  1  0  0  0  0
  5  6  2  0  0  0  0
  5  7  1  0  0  0  0
  7  8  1  0  0  0  0
  8 12  1  0  0  0  0
  8  9  2  0  0  0  0
  9 10  1  0  0  0  0
 10 11  2  0  0  0  0
 11 12  1  0  0  0  0
  3 13  1  0  0  0  0
 13 18  1  0  0  0  0
 13 14  1  0  0  0  0
 14 15  1  0  0  0  0
 15 16  1  0  0  0  0
 16 17  2  0  0  0  0
 17 18  1  0  0  0  0
 18 19  1  0  0  0  0
 19 20  2  0  0  0  0
 17 21  1  0  0  0  0
 21 22  2  0  0  0  0
 21 23  1  0  0  0  0
 16 24  1  0  0  0  0
 24 25  1  0  0  0  0
 25 26  1  0  0  0  0
 26 27  2  0  0  0  0
 26 28  1  0  0  0  0
 13 29  1  6  0  0  0
M  END
>  <Name>
Cefoxitin

>  <CAS #>
35607-66-0

>  <human Clearance (mL/min/kg)>
3.6

>  <Primary mechanism (metabolic, biliary or renal)>
renal

>  <seqId>
170.0

>  <Code (mechanism and clearance degree index)>
R1

>  < Five M1 and R1 test groups>
R1_2

>  <formamide>
0

>  <prodrug phosphates>
0

>  <VolSurf_V>
805.5

>  <VolSurf_S>
561.976

>  <VolSurf_R>
1.43334

>  <VolSurf_G>
1.5552

>  <VolSurf_IW1>
0.10875

>  <VolSurf_IW2>
0.227367

>  <VolSurf_IW3>
0.535271

>  <VolSurf_IW4>
0.759778

>  <VolSurf_ID1>
0.0944481

>  <VolSurf_ID2>
0.185127

>  <VolSurf_ID3>
0.425493

>  <VolSurf_ID4>
0.553806

>  <VolSurf_HL1>
11.838

>  <VolSurf_HL2>
17.3148

>  <VolSurf_A>
8.17374

>  <VolSurf_CP>
0.0761645

>  <VolSurf_POL>
36.942

>  <VolSurf_MW>
426.444

>  <VolSurf_FLEX>
1.61291

>  <VolSurf_FLEX_RB>
0.161291

>  <VolSurf_NCC>
1.0

>  <VolSurf_LOGP n-Oct>
-0.813

>  <VolSurf_LOGP c-Hex>
-5.596

>  <VolSurf_PSA>
183.69

>  <VolSurf_HSA>
378.286

>  <VolSurf_PSAR>
0.326865

>  <VolSurf_PHSAR>
0.485585

>  <VolSurf_LgD5>
-3.16251

>  <VolSurf_LgD6>
-3.68255

>  <VolSurf_LgD7>
-3.79717

>  <VolSurf_LgD7.5>
-3.80726

>  <VolSurf_LgD8>
-3.81049

>  <VolSurf_LgD9>
-3.81185

>  <VolSurf_LgD10>
-3.81202

>  <VolSurf_AUS7.4>
0.0

>  <VolSurf_%FU4>
3.36779

>  <VolSurf_%FU5>
0.347306

>  <VolSurf_%FU6>
0.0348395

>  <VolSurf_%FU7>
0.00348504

>  <VolSurf_%FU8>
3.48515E-4

>  <VolSurf_%FU9>
3.48513E-5

>  <VolSurf_%FU10>
3.4849E-6

>  <ID>
98

>  <MOKAID>
99

>  <Clearance Route>
renal

>  <PC1>
-3.9421199999999996

>  <PC2>
1.0275100000000001

$$$$
Cefozopran
  -OEChem-08301611272D

 36 40  0     1  0  0  0  0  0999 V2000
   11.6373   -0.9133    0.0000 N   0  0  0  0  0  0  0  0  0  0  0  0
   10.7449   -0.4621    0.0000 C   0  0  0  0  0  0  0  0  0  0  0  0
   10.5884    0.5255    0.0000 N   0  0  0  0  0  0  0  0  0  0  0  0
    9.5988    0.6795    0.0000 C   0  0  0  0  0  0  0  0  0  0  0  0
    9.1435    1.5698    0.0000 C   0  0  0  0  0  0  0  0  0  0  0  0
    8.1448    1.6207    0.0000 C   0  0  0  0  0  0  0  0  0  0  0  0
    7.6895    2.5110    0.0000 N   0  0  0  0  0  0  0  0  0  0  0  0
    6.6908    2.5619    0.0000 C   0  0  1  0  0  0  0  0  0  0  0  0
    6.0168    3.3081    0.0000 C   0  0  0  0  0  0  0  0  0  0  0  0
    5.2707    2.6342    0.0000 N   0  0  0  0  0  0  0  0  0  0  0  0
    4.2929    2.4250    0.0000 C   0  0  0  0  0  0  0  0  0  0  0  0
    3.9810    1.4699    0.0000 C   0  0  0  0  0  0  0  0  0  0  0  0
    3.0029    1.2620    0.0000 C   0  0  0  0  0  0  0  0  0  0  0  0
    2.6938    0.3110    0.0000 N   0  0  0  0  0  0  0  0  0  0  0  0
    3.2858   -0.5036    0.0000 C   0  0  0  0  0  0  0  0  0  0  0  0
    2.6938   -1.3184    0.0000 C   0  0  0  0  0  0  0  0  0  0  0  0
    1.7360   -1.0071    0.0000 N   0  0  0  0  0  0  0  0  0  0  0  0
    1.7360    0.0000    0.0000 C   0  0  0  0  0  0  0  0  0  0  0  0
    0.8680    0.5079    0.0000 C   0  0  0  0  0  0  0  0  0  0  0  0
   -0.0000    0.0000    0.0000 C   0  0  0  0  0  0  0  0  0  0  0  0
   -0.0000   -1.0058    0.0000 C   0  0  0  0  0  0  0  0  0  0  0  0
    0.8680   -1.5037    0.0000 N   0  5  0  0  0  0  0  0  0  0  0  0
    4.6549    0.7236    0.0000 C   0  0  0  0  0  0  0  0  0  0  0  0
    5.6405    0.9324    0.0000 S   0  0  0  0  0  0  0  0  0  0  0  0
    5.9445    1.8879    0.0000 C   0  0  2  0  0  0  0  0  0  0  0  0
    3.6238    3.1682    0.0000 C   0  0  0  0  0  0  0  0  0  0  0  0
    3.9329    4.1192    0.0000 O   0  0  0  0  0  0  0  0  0  0  0  0
    2.6456    2.9604    0.0000 O   0  0  0  0  0  0  0  0  0  0  0  0
    6.0677    4.3068    0.0000 O   0  0  0  0  0  0  0  0  0  0  0  0
    7.6014    0.7812    0.0000 O   0  0  0  0  0  0  0  0  0  0  0  0
    9.6869    2.4093    0.0000 N   0  0  0  0  0  0  0  0  0  0  0  0
    9.2316    3.2996    0.0000 O   0  0  0  0  0  0  0  0  0  0  0  0
    9.7750    4.1391    0.0000 C   0  0  0  0  0  0  0  0  0  0  0  0
    9.1444   -0.2130    0.0000 N   0  0  0  0  0  0  0  0  0  0  0  0
    9.8563   -0.9217    0.0000 S   0  0  0  0  0  0  0  0  0  0  0  0
    6.7852    1.3465    0.0000 H   0  0  0  0  0  0  0  0  0  0  0  0
  1  2  1  0  0  0  0
  2 35  1  0  0  0  0
  2  3  2  0  0  0  0
  3  4  1  0  0  0  0
  4  5  1  0  0  0  0
  5  6  1  0  0  0  0
  6  7  1  0  0  0  0
  8  7  1  6  0  0  0
  8 25  1  0  0  0  0
  8  9  1  0  0  0  0
  9 10  1  0  0  0  0
 10 25  1  0  0  0  0
 10 11  1  0  0  0  0
 11 12  2  0  0  0  0
 12 13  1  0  0  0  0
 13 14  1  0  0  0  0
 14 18  1  0  0  0  0
 14 15  1  0  0  0  0
 15 16  2  0  0  0  0
 16 17  1  0  0  0  0
 17 22  1  0  0  0  0
 17 18  1  0  0  0  0
 18 19  2  0  0  0  0
 19 20  1  0  0  0  0
 20 21  2  0  0  0  0
 21 22  1  0  0  0  0
 12 23  1  0  0  0  0
 23 24  1  0  0  0  0
 24 25  1  0  0  0  0
 11 26  1  0  0  0  0
 26 27  2  0  0  0  0
 26 28  1  0  0  0  0
  9 29  2  0  0  0  0
  6 30  2  0  0  0  0
  5 31  2  3  0  0  0
 31 32  1  0  0  0  0
 32 33  1  0  0  0  0
  4 34  2  0  0  0  0
 34 35  1  0  0  0  0
 25 36  1  6  0  0  0
M  CHG  1  22  -1
M  END
>  <Name>
Cefozopran

>  <CAS #>
113359-04-9

>  <human Clearance (mL/min/kg)>
2.1

>  <Primary mechanism (metabolic, biliary or renal)>
renal

>  <seqId>
171.0

>  <Code (mechanism and clearance degree index)>
R1

>  < Five M1 and R1 test groups>
R1_1

>  <formamide>
0

>  <prodrug phosphates>
0

>  <VolSurf_V>
962.875

>  <VolSurf_S>
662.173

>  <VolSurf_R>
1.45411

>  <VolSurf_G>
1.66403

>  <VolSurf_IW1>
0.0512171

>  <VolSurf_IW2>
0.119332

>  <VolSurf_IW3>
0.355185

>  <VolSurf_IW4>
0.612085

>  <VolSurf_ID1>
0.0570709

>  <VolSurf_ID2>
0.0964643

>  <VolSurf_ID3>
0.123154

>  <VolSurf_ID4>
0.162055

>  <VolSurf_HL1>
3.27092

>  <VolSurf_HL2>
2.53959

>  <VolSurf_A>
4.57376

>  <VolSurf_CP>
0.588286

>  <VolSurf_POL>
47.508

>  <VolSurf_MW>
516.533

>  <VolSurf_FLEX>
1.92218

>  <VolSurf_FLEX_RB>
0.213575

>  <VolSurf_NCC>
1.0

>  <VolSurf_LOGP n-Oct>
-1.288

>  <VolSurf_LOGP c-Hex>
-6.436

>  <VolSurf_PSA>
212.23

>  <VolSurf_HSA>
449.943

>  <VolSurf_PSAR>
0.320505

>  <VolSurf_PHSAR>
0.471682

>  <VolSurf_LgD5>
-4.30579

>  <VolSurf_LgD6>
-4.7075

>  <VolSurf_LgD7>
-4.77924

>  <VolSurf_LgD7.5>
-4.78521

>  <VolSurf_LgD8>
-4.78712

>  <VolSurf_LgD9>
-4.78796

>  <VolSurf_LgD10>
-4.78843

>  <VolSurf_AUS7.4>
0.0

>  <VolSurf_%FU4>
0.640137

>  <VolSurf_%FU5>
0.0643847

>  <VolSurf_%FU6>
0.00644221

>  <VolSurf_%FU7>
6.44257E-4

>  <VolSurf_%FU8>
6.44255E-5

>  <VolSurf_%FU9>
6.44197E-6

>  <VolSurf_%FU10>
6.43607E-7

>  <ID>
99

>  <MOKAID>
100

>  <Clearance Route>
renal

>  <PC1>
-4.69781

>  <PC2>
-1.43276

$$$$
Cefpimizole
  -OEChem-08301611272D

 46 50  0     1  0  0  0  0  0999 V2000
   -3.4500    1.7129    0.0000 N   0  0  0  0  0  0  0  0  0  0  0  0
   -3.1912    2.6788    0.0000 C   0  0  0  0  0  0  0  0  0  0  0  0
   -3.8983    3.3859    0.0000 C   0  0  1  0  0  0  0  0  0  0  0  0
   -4.8642    3.1271    0.0000 C   0  0  0  0  0  0  0  0  0  0  0  0
   -5.1215    2.1554    0.0000 C   0  0  0  0  0  0  0  0  0  0  0  0
   -6.0875    1.8965    0.0000 C   0  0  0  0  0  0  0  0  0  0  0  0
   -6.7987    2.5995    0.0000 C   0  0  0  0  0  0  0  0  0  0  0  0
   -6.5414    3.5712    0.0000 C   0  0  0  0  0  0  0  0  0  0  0  0
   -5.5729    3.8400    0.0000 C   0  0  0  0  0  0  0  0  0  0  0  0
   -3.6395    4.3519    0.0000 N   0  0  0  0  0  0  0  0  0  0  0  0
   -4.3466    5.0590    0.0000 C   0  0  0  0  0  0  0  0  0  0  0  0
   -4.0878    6.0249    0.0000 C   0  0  0  0  0  0  0  0  0  0  0  0
   -4.7161    6.8029    0.0000 C   0  0  0  0  0  0  0  0  0  0  0  0
   -5.7146    6.7489    0.0000 C   0  0  0  0  0  0  0  0  0  0  0  0
   -6.2607    7.5866    0.0000 O   0  0  0  0  0  0  0  0  0  0  0  0
   -6.1671    5.8571    0.0000 O   0  0  0  0  0  0  0  0  0  0  0  0
   -4.1753    7.6444    0.0000 N   0  0  0  0  0  0  0  0  0  0  0  0
   -3.2048    7.3853    0.0000 C   0  0  0  0  0  0  0  0  0  0  0  0
   -3.1534    6.3850    0.0000 N   0  0  0  0  0  0  0  0  0  0  0  0
   -5.3125    4.8002    0.0000 O   0  0  0  0  0  0  0  0  0  0  0  0
   -2.2253    2.9377    0.0000 O   0  0  0  0  0  0  0  0  0  0  0  0
   -2.7429    1.0058    0.0000 C   0  0  2  0  0  0  0  0  0  0  0  0
   -1.7374    1.0058    0.0000 C   0  0  3  0  0  0  0  0  0  0  0  0
   -1.7375    0.0003    0.0000 N   0  0  0  0  0  0  0  0  0  0  0  0
   -0.8716   -0.4998    0.0000 C   0  0  0  0  0  0  0  0  0  0  0  0
    0.0000    0.0000    0.0000 C   0  0  0  0  0  0  0  0  0  0  0  0
    0.8653   -0.5013    0.0000 C   0  0  0  0  0  0  0  0  0  0  0  0
    1.7320   -0.0026    0.0000 N   0  3  0  0  0  0  0  0  0  0  0  0
    2.6047   -0.5014    0.0000 C   0  0  0  0  0  0  0  0  0  0  0  0
    3.4760   -0.0001    0.0000 C   0  0  0  0  0  0  0  0  0  0  0  0
    3.4746    0.9999    0.0000 C   0  0  0  0  0  0  0  0  0  0  0  0
    4.3414    1.4986    0.0000 C   0  0  0  0  0  0  0  0  0  0  0  0
    4.3429    2.4986    0.0000 C   0  0  0  0  0  0  0  0  0  0  0  0
    5.2097    2.9973    0.0000 S   0  0  0  0  0  0  0  0  0  0  0  0
    4.7110    3.8641    0.0000 O   0  0  0  0  0  0  0  0  0  0  0  0
    5.7084    2.1305    0.0000 O   0  0  0  0  0  0  0  0  0  0  0  0
    6.0765    3.4960    0.0000 O   0  0  0  0  0  0  0  0  0  0  0  0
    2.6108    1.5038    0.0000 C   0  0  0  0  0  0  0  0  0  0  0  0
    1.7395    1.0025    0.0000 C   0  0  0  0  0  0  0  0  0  0  0  0
    0.0001    1.0055    0.0000 C   0  0  0  0  0  0  0  0  0  0  0  0
   -0.8713    1.5112    0.0000 S   0  0  0  0  0  0  0  0  0  0  0  0
   -0.8731   -1.4998    0.0000 C   0  0  0  0  0  0  0  0  0  0  0  0
   -1.7399   -1.9985    0.0000 O   0  0  0  0  0  0  0  0  0  0  0  0
   -0.0079   -2.0011    0.0000 O   0  0  0  0  0  0  0  0  0  0  0  0
   -2.7429    0.0003    0.0000 C   0  0  0  0  0  0  0  0  0  0  0  0
   -3.4500   -0.7068    0.0000 O   0  0  0  0  0  0  0  0  0  0  0  0
  1  2  1  0  0  0  0
  3  2  1  1  0  0  0
  3  4  1  0  0  0  0
  4  9  2  0  0  0  0
  4  5  1  0  0  0  0
  5  6  2  0  0  0  0
  6  7  1  0  0  0  0
  7  8  2  0  0  0  0
  8  9  1  0  0  0  0
  3 10  1  0  0  0  0
 10 11  1  0  0  0  0
 11 12  1  0  0  0  0
 12 19  1  0  0  0  0
 12 13  2  0  0  0  0
 13 14  1  0  0  0  0
 14 15  2  0  0  0  0
 14 16  1  0  0  0  0
 13 17  1  0  0  0  0
 17 18  2  0  0  0  0
 18 19  1  0  0  0  0
 11 20  2  0  0  0  0
  2 21  2  0  0  0  0
 22  1  1  6  0  0  0
 22 45  1  0  0  0  0
 22 23  1  0  0  0  0
 23 41  1  0  0  0  0
 23 24  1  0  0  0  0
 24 25  1  0  0  0  0
 25 26  2  0  0  0  0
 26 27  1  0  0  0  0
 27 28  1  0  0  0  0
 28 39  2  0  0  0  0
 28 29  1  0  0  0  0
 29 30  2  0  0  0  0
 30 31  1  0  0  0  0
 31 32  1  0  0  0  0
 32 33  1  0  0  0  0
 33 34  1  0  0  0  0
 34 35  2  0  0  0  0
 34 36  2  0  0  0  0
 34 37  1  0  0  0  0
 31 38  2  0  0  0  0
 38 39  1  0  0  0  0
 26 40  1  0  0  0  0
 40 41  1  0  0  0  0
 25 42  1  0  0  0  0
 42 43  2  0  0  0  0
 42 44  1  0  0  0  0
 24 45  1  0  0  0  0
 45 46  2  0  0  0  0
M  CHG  1  28   1
M  END
>  <Name>
Cefpimizole

>  <CAS #>
84880-03-5

>  <human Clearance (mL/min/kg)>
1.7

>  <Primary mechanism (metabolic, biliary or renal)>
renal

>  <seqId>
172.0

>  <Code (mechanism and clearance degree index)>
R1

>  < Five M1 and R1 test groups>
R1_3

>  <formamide>
0

>  <prodrug phosphates>
0

>  <VolSurf_V>
1273.0

>  <VolSurf_S>
855.105

>  <VolSurf_R>
1.48871

>  <VolSurf_G>
1.84703

>  <VolSurf_IW1>
0.0186346

>  <VolSurf_IW2>
0.0279033

>  <VolSurf_IW3>
0.114262

>  <VolSurf_IW4>
0.551236

>  <VolSurf_ID1>
0.0182383

>  <VolSurf_ID2>
0.0362976

>  <VolSurf_ID3>
0.0497699

>  <VolSurf_ID4>
0.124629

>  <VolSurf_HL1>
5.29762

>  <VolSurf_HL2>
4.08

>  <VolSurf_A>
2.19649

>  <VolSurf_CP>
0.715249

>  <VolSurf_POL>
59.214

>  <VolSurf_MW>
668.654

>  <VolSurf_FLEX>
3.36742

>  <VolSurf_FLEX_RB>
0.259032

>  <VolSurf_NCC>
4.0

>  <VolSurf_LOGP n-Oct>
-3.459

>  <VolSurf_LOGP c-Hex>
-8.836

>  <VolSurf_PSA>
270.87

>  <VolSurf_HSA>
584.235

>  <VolSurf_PSAR>
0.316768

>  <VolSurf_PHSAR>
0.463632

>  <VolSurf_LgD5>
-7.77373

>  <VolSurf_LgD6>
-8.76209

>  <VolSurf_LgD7>
-9.0

>  <VolSurf_LgD7.5>
-9.0

>  <VolSurf_LgD8>
-9.0

>  <VolSurf_LgD9>
-9.0

>  <VolSurf_LgD10>
-9.0

>  <VolSurf_AUS7.4>
0.0

>  <VolSurf_%FU4>
0.0

>  <VolSurf_%FU5>
0.0

>  <VolSurf_%FU6>
0.0

>  <VolSurf_%FU7>
0.0

>  <VolSurf_%FU8>
0.0

>  <VolSurf_%FU9>
0.0

>  <VolSurf_%FU10>
0.0

>  <ID>
100

>  <MOKAID>
101

>  <Clearance Route>
renal

>  <PC1>
-7.8925

>  <PC2>
-3.38979

$$$$
Cefpirome
  -OEChem-08301611272D

 36 40  0     1  0  0  0  0  0999 V2000
    4.0502    3.4837    0.0000 C   0  0  0  0  0  0  0  0  0  0  0  0
    3.3446    4.1923    0.0000 O   0  0  0  0  0  0  0  0  0  0  0  0
    3.6054    5.1577    0.0000 N   0  0  0  0  0  0  0  0  0  0  0  0
    2.8998    5.8663    0.0000 C   0  0  0  0  0  0  0  0  0  0  0  0
    1.9334    5.6095    0.0000 C   0  0  0  0  0  0  0  0  0  0  0  0
    1.2277    6.3180    0.0000 O   0  0  0  0  0  0  0  0  0  0  0  0
    1.6725    4.6441    0.0000 N   0  0  0  0  0  0  0  0  0  0  0  0
    0.7061    4.3873    0.0000 C   0  0  1  0  0  0  0  0  0  0  0  0
    0.2015    3.5175    0.0000 C   0  0  1  0  0  0  0  0  0  0  0  0
    0.2040    2.5148    0.0000 S   0  0  0  0  0  0  0  0  0  0  0  0
   -0.6707    2.0148    0.0000 C   0  0  0  0  0  0  0  0  0  0  0  0
   -1.5404    2.5195    0.0000 C   0  0  0  0  0  0  0  0  0  0  0  0
   -1.5353    3.5242    0.0000 C   0  0  0  0  0  0  0  0  0  0  0  0
   -0.6682    4.0222    0.0000 N   0  0  0  0  0  0  0  0  0  0  0  0
   -0.1637    4.8919    0.0000 C   0  0  0  0  0  0  0  0  0  0  0  0
   -0.4205    5.8583    0.0000 O   0  0  0  0  0  0  0  0  0  0  0  0
   -2.3995    4.0273    0.0000 C   0  0  0  0  0  0  0  0  0  0  0  0
   -2.3959    5.0273    0.0000 O   0  0  0  0  0  0  0  0  0  0  0  0
   -3.2673    3.5305    0.0000 O   0  5  0  0  0  0  0  0  0  0  0  0
   -2.4082    2.0226    0.0000 C   0  0  0  0  0  0  0  0  0  0  0  0
   -2.4118    1.0226    0.0000 N   0  3  0  0  0  0  0  0  0  0  0  0
   -3.2803    0.5214    0.0000 C   0  0  0  0  0  0  0  0  0  0  0  0
   -3.2854   -0.4841    0.0000 C   0  0  0  0  0  0  0  0  0  0  0  0
   -2.4219   -0.9884    0.0000 C   0  0  0  0  0  0  0  0  0  0  0  0
   -1.5493   -0.4920    0.0000 C   0  0  0  0  0  0  0  0  0  0  0  0
   -0.5960   -0.8089    0.0000 C   0  0  0  0  0  0  0  0  0  0  0  0
    0.0000   -0.0000    0.0000 C   0  0  0  0  0  0  0  0  0  0  0  0
   -0.5853    0.8166    0.0000 C   0  0  0  0  0  0  0  0  0  0  0  0
   -1.5428    0.5127    0.0000 C   0  0  0  0  0  0  0  0  0  0  0  0
    3.1607    6.8316    0.0000 C   0  0  0  0  0  0  0  0  0  0  0  0
    2.5340    7.6110    0.0000 C   0  0  0  0  0  0  0  0  0  0  0  0
    3.0765    8.4513    0.0000 S   0  0  0  0  0  0  0  0  0  0  0  0
    4.0465    8.1902    0.0000 C   0  0  0  0  0  0  0  0  0  0  0  0
    4.8249    8.8179    0.0000 N   0  0  0  0  0  0  0  0  0  0  0  0
    4.0958    7.1898    0.0000 N   0  0  0  0  0  0  0  0  0  0  0  0
    1.1675    3.2589    0.0000 H   0  0  0  0  0  0  0  0  0  0  0  0
  1  2  1  0  0  0  0
  2  3  1  0  0  0  0
  3  4  2  0  0  0  0
  4  5  1  0  0  0  0
  5  6  2  0  0  0  0
  5  7  1  0  0  0  0
  8  7  1  1  0  0  0
  8 15  1  0  0  0  0
  8  9  1  0  0  0  0
  9 14  1  0  0  0  0
  9 10  1  0  0  0  0
 10 11  1  0  0  0  0
 11 12  1  0  0  0  0
 12 13  2  0  0  0  0
 13 14  1  0  0  0  0
 14 15  1  0  0  0  0
 15 16  2  0  0  0  0
 13 17  1  0  0  0  0
 17 18  2  0  0  0  0
 17 19  1  0  0  0  0
 12 20  1  0  0  0  0
 20 21  1  0  0  0  0
 21 29  2  0  0  0  0
 21 22  1  0  0  0  0
 22 23  2  0  0  0  0
 23 24  1  0  0  0  0
 24 25  2  0  0  0  0
 25 29  1  0  0  0  0
 25 26  1  0  0  0  0
 26 27  1  0  0  0  0
 27 28  1  0  0  0  0
 28 29  1  0  0  0  0
  4 30  1  0  0  0  0
 30 35  1  0  0  0  0
 30 31  2  0  0  0  0
 31 32  1  0  0  0  0
 32 33  1  0  0  0  0
 33 34  1  0  0  0  0
 33 35  2  0  0  0  0
  9 36  1  6  0  0  0
M  CHG  2  19  -1  21   1
M  END
>  <Name>
Cefpirome

>  <CAS #>
84957-29-9

>  <human Clearance (mL/min/kg)>
1.9

>  <Primary mechanism (metabolic, biliary or renal)>
renal

>  <seqId>
174.0

>  <Code (mechanism and clearance degree index)>
R1

>  < Five M1 and R1 test groups>
R1_3

>  <formamide>
0

>  <prodrug phosphates>
0

>  <VolSurf_V>
989.375

>  <VolSurf_S>
666.606

>  <VolSurf_R>
1.4842

>  <VolSurf_G>
1.63575

>  <VolSurf_IW1>
0.0474146

>  <VolSurf_IW2>
0.127338

>  <VolSurf_IW3>
0.384264

>  <VolSurf_IW4>
0.661114

>  <VolSurf_ID1>
0.045061

>  <VolSurf_ID2>
0.051993

>  <VolSurf_ID3>
0.0867325

>  <VolSurf_ID4>
0.120118

>  <VolSurf_HL1>
4.28049

>  <VolSurf_HL2>
4.29474

>  <VolSurf_A>
4.15619

>  <VolSurf_CP>
0.672748

>  <VolSurf_POL>
48.039

>  <VolSurf_MW>
514.577

>  <VolSurf_FLEX>
1.91489

>  <VolSurf_FLEX_RB>
0.212766

>  <VolSurf_NCC>
2.0

>  <VolSurf_LOGP n-Oct>
0.7

>  <VolSurf_LOGP c-Hex>
-3.235

>  <VolSurf_PSA>
185.88

>  <VolSurf_HSA>
480.726

>  <VolSurf_PSAR>
0.278845

>  <VolSurf_PHSAR>
0.386665

>  <VolSurf_LgD5>
-1.60006

>  <VolSurf_LgD6>
-1.6

>  <VolSurf_LgD7>
-1.6

>  <VolSurf_LgD7.5>
-1.6

>  <VolSurf_LgD8>
-1.6

>  <VolSurf_LgD9>
-1.6

>  <VolSurf_LgD10>
-1.6

>  <VolSurf_AUS7.4>
0.0

>  <VolSurf_%FU4>
0.0

>  <VolSurf_%FU5>
0.0

>  <VolSurf_%FU6>
0.0

>  <VolSurf_%FU7>
0.0

>  <VolSurf_%FU8>
0.0

>  <VolSurf_%FU9>
0.0

>  <VolSurf_%FU10>
0.0

>  <ID>
101

>  <MOKAID>
102

>  <Clearance Route>
possible billary

>  <PC1>
-2.67896

>  <PC2>
-1.7867099999999998

$$$$
Cefprozil
  -OEChem-08301611272D

 28 30  0     1  0  0  0  0  0999 V2000
    2.5973   -0.5040    0.0000 C   0  0  0  0  0  0  0  0  0  0  0  0
    1.7320   -0.0026    0.0000 C   0  0  0  0  0  0  0  0  0  0  0  0
    0.8653   -0.5013    0.0000 C   0  0  0  0  0  0  0  0  0  0  0  0
   -0.0000    0.0000    0.0000 C   0  0  0  0  0  0  0  0  0  0  0  0
   -0.8716   -0.4998    0.0000 C   0  0  0  0  0  0  0  0  0  0  0  0
   -1.7375    0.0003    0.0000 N   0  0  0  0  0  0  0  0  0  0  0  0
   -1.7374    1.0058    0.0000 C   0  0  2  0  0  0  0  0  0  0  0  0
   -0.8713    1.5112    0.0000 S   0  0  0  0  0  0  0  0  0  0  0  0
    0.0001    1.0055    0.0000 C   0  0  0  0  0  0  0  0  0  0  0  0
   -2.7429    1.0058    0.0000 C   0  0  2  0  0  0  0  0  0  0  0  0
   -3.4500    1.7129    0.0000 N   0  0  0  0  0  0  0  0  0  0  0  0
   -4.4159    1.4541    0.0000 C   0  0  0  0  0  0  0  0  0  0  0  0
   -4.6748    0.4882    0.0000 O   0  0  0  0  0  0  0  0  0  0  0  0
   -5.1230    2.1612    0.0000 C   0  0  2  0  0  0  0  0  0  0  0  0
   -4.8642    3.1271    0.0000 N   0  0  0  0  0  0  0  0  0  0  0  0
   -6.0890    1.9024    0.0000 C   0  0  0  0  0  0  0  0  0  0  0  0
   -6.3463    0.9307    0.0000 C   0  0  0  0  0  0  0  0  0  0  0  0
   -7.3122    0.6718    0.0000 C   0  0  0  0  0  0  0  0  0  0  0  0
   -8.0235    1.3748    0.0000 C   0  0  0  0  0  0  0  0  0  0  0  0
   -8.9882    1.1117    0.0000 O   0  0  0  0  0  0  0  0  0  0  0  0
   -7.7662    2.3465    0.0000 C   0  0  0  0  0  0  0  0  0  0  0  0
   -6.7976    2.6152    0.0000 C   0  0  0  0  0  0  0  0  0  0  0  0
   -2.7429    0.0003    0.0000 C   0  0  0  0  0  0  0  0  0  0  0  0
   -3.4500   -0.7068    0.0000 O   0  0  0  0  0  0  0  0  0  0  0  0
   -0.8731   -1.4998    0.0000 C   0  0  0  0  0  0  0  0  0  0  0  0
   -1.7399   -1.9985    0.0000 O   0  0  0  0  0  0  0  0  0  0  0  0
   -0.0079   -2.0011    0.0000 O   0  0  0  0  0  0  0  0  0  0  0  0
   -1.9985    1.9711    0.0000 H   0  0  0  0  0  0  0  0  0  0  0  0
  1  2  1  0  0  0  0
  2  3  2  0  0  0  0
  3  4  1  0  0  0  0
  4  9  1  0  0  0  0
  4  5  2  0  0  0  0
  5  6  1  0  0  0  0
  6 23  1  0  0  0  0
  6  7  1  0  0  0  0
  7  8  1  0  0  0  0
  8  9  1  0  0  0  0
  7 10  1  0  0  0  0
 10 11  1  1  0  0  0
 11 12  1  0  0  0  0
 12 13  2  0  0  0  0
 12 14  1  0  0  0  0
 14 15  1  1  0  0  0
 14 16  1  0  0  0  0
 16 22  2  0  0  0  0
 16 17  1  0  0  0  0
 17 18  2  0  0  0  0
 18 19  1  0  0  0  0
 19 20  1  0  0  0  0
 19 21  2  0  0  0  0
 21 22  1  0  0  0  0
 10 23  1  0  0  0  0
 23 24  2  0  0  0  0
  5 25  1  0  0  0  0
 25 26  2  0  0  0  0
 25 27  1  0  0  0  0
  7 28  1  6  0  0  0
M  END
>  <Name>
Cefprozil

>  <CAS #>
92665-29-7

>  <human Clearance (mL/min/kg)>
2.9

>  <Primary mechanism (metabolic, biliary or renal)>
renal

>  <seqId>
175.0

>  <Code (mechanism and clearance degree index)>
R1

>  < Five M1 and R1 test groups>
R1_2

>  <formamide>
0

>  <prodrug phosphates>
0

>  <VolSurf_V>
798.125

>  <VolSurf_S>
560.165

>  <VolSurf_R>
1.4248

>  <VolSurf_G>
1.56199

>  <VolSurf_IW1>
0.0521497

>  <VolSurf_IW2>
0.120429

>  <VolSurf_IW3>
0.273587

>  <VolSurf_IW4>
0.425724

>  <VolSurf_ID1>
0.040471

>  <VolSurf_ID2>
0.0856778

>  <VolSurf_ID3>
0.136208

>  <VolSurf_ID4>
0.312032

>  <VolSurf_HL1>
8.33333

>  <VolSurf_HL2>
10.4762

>  <VolSurf_A>
3.35534

>  <VolSurf_CP>
0.23169

>  <VolSurf_POL>
38.893

>  <VolSurf_MW>
389.425

>  <VolSurf_FLEX>
1.24059

>  <VolSurf_FLEX_RB>
0.155074

>  <VolSurf_NCC>
2.0

>  <VolSurf_LOGP n-Oct>
-0.389

>  <VolSurf_LOGP c-Hex>
-5.299

>  <VolSurf_PSA>
161.91

>  <VolSurf_HSA>
398.255

>  <VolSurf_PSAR>
0.28904

>  <VolSurf_PHSAR>
0.406548

>  <VolSurf_LgD5>
-1.56702

>  <VolSurf_LgD6>
-1.57552

>  <VolSurf_LgD7>
-1.66599

>  <VolSurf_LgD7.5>
-1.82842

>  <VolSurf_LgD8>
-2.12798

>  <VolSurf_LgD9>
-3.02918

>  <VolSurf_LgD10>
-4.10298

>  <VolSurf_AUS7.4>
0.0

>  <VolSurf_%FU4>
0.0

>  <VolSurf_%FU5>
0.0

>  <VolSurf_%FU6>
0.0

>  <VolSurf_%FU7>
0.0

>  <VolSurf_%FU8>
0.0

>  <VolSurf_%FU9>
0.0

>  <VolSurf_%FU10>
0.0

>  <ID>
102

>  <MOKAID>
103

>  <Clearance Route>
renal

>  <PC1>
-2.72853

>  <PC2>
0.390286

$$$$
Ceftaroline fosamil
  -OEChem-08301611272D

 44 48  0     1  0  0  0  0  0999 V2000
   -2.7429    0.0003    0.0000 C   0  0  0  0  0  0  0  0  0  0  0  0
   -3.4500   -0.7068    0.0000 O   0  0  0  0  0  0  0  0  0  0  0  0
   -2.7429    1.0058    0.0000 C   0  0  2  0  0  0  0  0  0  0  0  0
   -1.7374    1.0058    0.0000 C   0  0  2  0  0  0  0  0  0  0  0  0
   -1.7375    0.0003    0.0000 N   0  0  0  0  0  0  0  0  0  0  0  0
   -0.8716   -0.4998    0.0000 C   0  0  0  0  0  0  0  0  0  0  0  0
    0.0000    0.0000    0.0000 C   0  0  0  0  0  0  0  0  0  0  0  0
    0.0001    1.0055    0.0000 C   0  0  0  0  0  0  0  0  0  0  0  0
   -0.8713    1.5112    0.0000 S   0  0  0  0  0  0  0  0  0  0  0  0
    0.8653   -0.5013    0.0000 S   0  0  0  0  0  0  0  0  0  0  0  0
    1.7320   -0.0026    0.0000 C   0  0  0  0  0  0  0  0  0  0  0  0
    2.6494   -0.4117    0.0000 S   0  0  0  0  0  0  0  0  0  0  0  0
    3.3163    0.3338    0.0000 C   0  0  0  0  0  0  0  0  0  0  0  0
    2.8188    1.2013    0.0000 C   0  0  0  0  0  0  0  0  0  0  0  0
    1.8392    0.9932    0.0000 N   0  0  0  0  0  0  0  0  0  0  0  0
    3.2269    2.1142    0.0000 C   0  0  0  0  0  0  0  0  0  0  0  0
    2.6380    2.9224    0.0000 C   0  0  0  0  0  0  0  0  0  0  0  0
    3.0482    3.8401    0.0000 C   0  0  0  0  0  0  0  0  0  0  0  0
    4.0474    3.9495    0.0000 N   0  3  0  0  0  0  0  0  0  0  0  0
    4.6322    3.1320    0.0000 C   0  0  0  0  0  0  0  0  0  0  0  0
    4.2219    2.2143    0.0000 C   0  0  0  0  0  0  0  0  0  0  0  0
    4.4555    4.8625    0.0000 C   0  0  0  0  0  0  0  0  0  0  0  0
   -0.8731   -1.4998    0.0000 C   0  0  0  0  0  0  0  0  0  0  0  0
   -1.7399   -1.9985    0.0000 O   0  0  0  0  0  0  0  0  0  0  0  0
   -0.0079   -2.0011    0.0000 O   0  5  0  0  0  0  0  0  0  0  0  0
   -3.4500    1.7129    0.0000 N   0  0  0  0  0  0  0  0  0  0  0  0
   -4.4159    1.4541    0.0000 C   0  0  0  0  0  0  0  0  0  0  0  0
   -4.6748    0.4882    0.0000 O   0  0  0  0  0  0  0  0  0  0  0  0
   -5.1230    2.1612    0.0000 C   0  0  0  0  0  0  0  0  0  0  0  0
   -4.8642    3.1271    0.0000 N   0  0  0  0  0  0  0  0  0  0  0  0
   -3.8983    3.3859    0.0000 O   0  0  0  0  0  0  0  0  0  0  0  0
   -3.6395    4.3519    0.0000 C   0  0  0  0  0  0  0  0  0  0  0  0
   -2.6736    4.6107    0.0000 C   0  0  0  0  0  0  0  0  0  0  0  0
   -6.0890    1.9024    0.0000 C   0  0  0  0  0  0  0  0  0  0  0  0
   -6.4467    0.9670    0.0000 N   0  0  0  0  0  0  0  0  0  0  0  0
   -7.4452    1.0207    0.0000 C   0  0  0  0  0  0  0  0  0  0  0  0
   -7.7086    1.9858    0.0000 S   0  0  0  0  0  0  0  0  0  0  0  0
   -6.8666    2.5336    0.0000 N   0  0  0  0  0  0  0  0  0  0  0  0
   -8.0733    0.2425    0.0000 N   0  0  0  0  0  0  0  0  0  0  0  0
   -7.7134   -0.6905    0.0000 P   0  0  0  0  0  0  0  0  0  0  0  0
   -7.3535   -1.6235    0.0000 O   0  0  0  0  0  0  0  0  0  0  0  0
   -6.7804   -0.3306    0.0000 O   0  0  0  0  0  0  0  0  0  0  0  0
   -8.6464   -1.0503    0.0000 O   0  0  0  0  0  0  0  0  0  0  0  0
   -1.9985    1.9711    0.0000 H   0  0  0  0  0  0  0  0  0  0  0  0
  1  5  1  0  0  0  0
  1  2  2  0  0  0  0
  1  3  1  0  0  0  0
  3  4  1  0  0  0  0
  4  9  1  0  0  0  0
  4  5  1  0  0  0  0
  5  6  1  0  0  0  0
  6  7  2  0  0  0  0
  7  8  1  0  0  0  0
  8  9  1  0  0  0  0
  7 10  1  0  0  0  0
 10 11  1  0  0  0  0
 11 15  2  0  0  0  0
 11 12  1  0  0  0  0
 12 13  1  0  0  0  0
 13 14  2  0  0  0  0
 14 15  1  0  0  0  0
 14 16  1  0  0  0  0
 16 21  2  0  0  0  0
 16 17  1  0  0  0  0
 17 18  2  0  0  0  0
 18 19  1  0  0  0  0
 19 20  2  0  0  0  0
 20 21  1  0  0  0  0
 19 22  1  0  0  0  0
  6 23  1  0  0  0  0
 23 24  2  0  0  0  0
 23 25  1  0  0  0  0
  3 26  1  1  0  0  0
 26 27  1  0  0  0  0
 27 28  2  0  0  0  0
 27 29  1  0  0  0  0
 29 30  2  0  0  0  0
 30 31  1  0  0  0  0
 31 32  1  0  0  0  0
 32 33  1  0  0  0  0
 29 34  1  0  0  0  0
 34 38  2  0  0  0  0
 34 35  1  0  0  0  0
 35 36  2  0  0  0  0
 36 37  1  0  0  0  0
 37 38  1  0  0  0  0
 36 39  1  0  0  0  0
 39 40  1  0  0  0  0
 40 41  2  0  0  0  0
 40 42  1  0  0  0  0
 40 43  1  0  0  0  0
  4 44  1  6  0  0  0
M  CHG  2  19   1  25  -1
M  END
>  <Name>
Ceftaroline fosamil

>  <CAS #>
229016-73-3

>  <human Clearance (mL/min/kg)>
83.6

>  <Primary mechanism (metabolic, biliary or renal)>
metabolic

>  <seqId>
176.0

>  <Code (mechanism and clearance degree index)>
M1

>  < Five M1 and R1 test groups>
M1_5

>  <formamide>
0

>  <prodrug phosphates>
1

>  <VolSurf_V>
1223.38

>  <VolSurf_S>
818.368

>  <VolSurf_R>
1.4949

>  <VolSurf_G>
1.79944

>  <VolSurf_IW1>
0.0818656

>  <VolSurf_IW2>
0.197811

>  <VolSurf_IW3>
0.479532

>  <VolSurf_IW4>
0.581898

>  <VolSurf_ID1>
0.0717421

>  <VolSurf_ID2>
0.143768

>  <VolSurf_ID3>
0.186398

>  <VolSurf_ID4>
0.239318

>  <VolSurf_HL1>
4.1167

>  <VolSurf_HL2>
3.77031

>  <VolSurf_A>
8.49192

>  <VolSurf_CP>
0.259728

>  <VolSurf_POL>
61.428

>  <VolSurf_MW>
683.677

>  <VolSurf_FLEX>
3.16871

>  <VolSurf_FLEX_RB>
0.226337

>  <VolSurf_NCC>
3.0

>  <VolSurf_LOGP n-Oct>
-4.601

>  <VolSurf_LOGP c-Hex>
-3.987

>  <VolSurf_PSA>
275.06

>  <VolSurf_HSA>
543.308

>  <VolSurf_PSAR>
0.336108

>  <VolSurf_PHSAR>
0.506269

>  <VolSurf_LgD5>
-6.9015

>  <VolSurf_LgD6>
-6.91013

>  <VolSurf_LgD7>
-6.98374

>  <VolSurf_LgD7.5>
-7.1169

>  <VolSurf_LgD8>
-7.35766

>  <VolSurf_LgD9>
-7.88989

>  <VolSurf_LgD10>
-8.07362

>  <VolSurf_AUS7.4>
0.0

>  <VolSurf_%FU4>
0.0

>  <VolSurf_%FU5>
0.0

>  <VolSurf_%FU6>
0.0

>  <VolSurf_%FU7>
0.0

>  <VolSurf_%FU8>
0.0

>  <VolSurf_%FU9>
0.0

>  <VolSurf_%FU10>
0.0

>  <ID>
103

>  <MOKAID>
104

>  <Clearance Route>
renal

>  <PC1>
-7.048710000000001

>  <PC2>
-1.0660100000000001

$$$$
Ceftazidime
  -OEChem-08301611272D

 38 41  0     1  0  0  0  0  0999 V2000
   -4.6054    4.6107    0.0000 C   0  0  0  0  0  0  0  0  0  0  0  0
   -3.6395    4.3519    0.0000 C   0  0  0  0  0  0  0  0  0  0  0  0
   -2.6735    4.0930    0.0000 C   0  0  0  0  0  0  0  0  0  0  0  0
   -3.8983    3.3859    0.0000 O   0  0  0  0  0  0  0  0  0  0  0  0
   -4.8642    3.1271    0.0000 N   0  0  0  0  0  0  0  0  0  0  0  0
   -5.1230    2.1612    0.0000 C   0  0  0  0  0  0  0  0  0  0  0  0
   -4.4159    1.4541    0.0000 C   0  0  0  0  0  0  0  0  0  0  0  0
   -4.6748    0.4882    0.0000 O   0  0  0  0  0  0  0  0  0  0  0  0
   -3.4500    1.7129    0.0000 N   0  0  0  0  0  0  0  0  0  0  0  0
   -2.7429    1.0058    0.0000 C   0  0  1  0  0  0  0  0  0  0  0  0
   -1.7374    1.0058    0.0000 C   0  0  1  0  0  0  0  0  0  0  0  0
   -0.8713    1.5112    0.0000 S   0  0  0  0  0  0  0  0  0  0  0  0
    0.0001    1.0055    0.0000 C   0  0  0  0  0  0  0  0  0  0  0  0
    0.0000    0.0000    0.0000 C   0  0  0  0  0  0  0  0  0  0  0  0
   -0.8716   -0.4998    0.0000 C   0  0  0  0  0  0  0  0  0  0  0  0
   -1.7375    0.0003    0.0000 N   0  0  0  0  0  0  0  0  0  0  0  0
   -2.7429    0.0003    0.0000 C   0  0  0  0  0  0  0  0  0  0  0  0
   -3.4500   -0.7068    0.0000 O   0  0  0  0  0  0  0  0  0  0  0  0
   -0.8731   -1.4998    0.0000 C   0  0  0  0  0  0  0  0  0  0  0  0
   -1.7399   -1.9985    0.0000 O   0  0  0  0  0  0  0  0  0  0  0  0
   -0.0079   -2.0011    0.0000 O   0  5  0  0  0  0  0  0  0  0  0  0
    0.8653   -0.5013    0.0000 C   0  0  0  0  0  0  0  0  0  0  0  0
    1.7320   -0.0026    0.0000 N   0  3  0  0  0  0  0  0  0  0  0  0
    2.6047   -0.5014    0.0000 C   0  0  0  0  0  0  0  0  0  0  0  0
    3.4760   -0.0001    0.0000 C   0  0  0  0  0  0  0  0  0  0  0  0
    3.4746    0.9999    0.0000 C   0  0  0  0  0  0  0  0  0  0  0  0
    2.6108    1.5038    0.0000 C   0  0  0  0  0  0  0  0  0  0  0  0
    1.7395    1.0025    0.0000 C   0  0  0  0  0  0  0  0  0  0  0  0
   -6.0890    1.9024    0.0000 C   0  0  0  0  0  0  0  0  0  0  0  0
   -6.4486    0.9692    0.0000 C   0  0  0  0  0  0  0  0  0  0  0  0
   -7.4477    1.0168    0.0000 S   0  0  0  0  0  0  0  0  0  0  0  0
   -7.7086    1.9868    0.0000 C   0  0  0  0  0  0  0  0  0  0  0  0
   -8.6422    2.3452    0.0000 N   0  0  0  0  0  0  0  0  0  0  0  0
   -6.8680    2.5315    0.0000 N   0  0  0  0  0  0  0  0  0  0  0  0
   -3.3807    5.3178    0.0000 C   0  0  0  0  0  0  0  0  0  0  0  0
   -4.0878    6.0249    0.0000 O   0  0  0  0  0  0  0  0  0  0  0  0
   -2.4147    5.5766    0.0000 O   0  0  0  0  0  0  0  0  0  0  0  0
   -1.9985    1.9711    0.0000 H   0  0  0  0  0  0  0  0  0  0  0  0
  1  2  1  0  0  0  0
  2  3  1  0  0  0  0
  2  4  1  0  0  0  0
  4  5  1  0  0  0  0
  5  6  2  0  0  0  0
  6  7  1  0  0  0  0
  7  8  2  0  0  0  0
  7  9  1  0  0  0  0
 10  9  1  1  0  0  0
 10 17  1  0  0  0  0
 10 11  1  0  0  0  0
 11 16  1  0  0  0  0
 11 12  1  0  0  0  0
 12 13  1  0  0  0  0
 13 14  1  0  0  0  0
 14 15  2  0  0  0  0
 15 16  1  0  0  0  0
 16 17  1  0  0  0  0
 17 18  2  0  0  0  0
 15 19  1  0  0  0  0
 19 20  2  0  0  0  0
 19 21  1  0  0  0  0
 14 22  1  0  0  0  0
 22 23  1  0  0  0  0
 23 28  2  0  0  0  0
 23 24  1  0  0  0  0
 24 25  2  0  0  0  0
 25 26  1  0  0  0  0
 26 27  2  0  0  0  0
 27 28  1  0  0  0  0
  6 29  1  0  0  0  0
 29 34  1  0  0  0  0
 29 30  2  0  0  0  0
 30 31  1  0  0  0  0
 31 32  1  0  0  0  0
 32 33  1  0  0  0  0
 32 34  2  0  0  0  0
  2 35  1  0  0  0  0
 35 36  2  0  0  0  0
 35 37  1  0  0  0  0
 11 38  1  6  0  0  0
M  CHG  2  21  -1  23   1
M  END
>  <Name>
Ceftazidime

>  <CAS #>
72558-82-8

>  <human Clearance (mL/min/kg)>
2.4

>  <Primary mechanism (metabolic, biliary or renal)>
renal

>  <seqId>
177.0

>  <Code (mechanism and clearance degree index)>
R1

>  < Five M1 and R1 test groups>
R1_5

>  <formamide>
0

>  <prodrug phosphates>
0

>  <VolSurf_V>
1043.12

>  <VolSurf_S>
692.909

>  <VolSurf_R>
1.50543

>  <VolSurf_G>
1.64419

>  <VolSurf_IW1>
0.0619535

>  <VolSurf_IW2>
0.14141

>  <VolSurf_IW3>
0.258156

>  <VolSurf_IW4>
0.339645

>  <VolSurf_ID1>
0.0624368

>  <VolSurf_ID2>
0.0636667

>  <VolSurf_ID3>
0.0729383

>  <VolSurf_ID4>
0.0880965

>  <VolSurf_HL1>
5.25867

>  <VolSurf_HL2>
5.12844

>  <VolSurf_A>
3.68586

>  <VolSurf_CP>
0.477255

>  <VolSurf_POL>
48.929

>  <VolSurf_MW>
545.568

>  <VolSurf_FLEX>
2.25174

>  <VolSurf_FLEX_RB>
0.187645

>  <VolSurf_NCC>
3.0

>  <VolSurf_LOGP n-Oct>
-1.718

>  <VolSurf_LOGP c-Hex>
-4.93

>  <VolSurf_PSA>
232.0

>  <VolSurf_HSA>
460.909

>  <VolSurf_PSAR>
0.33482

>  <VolSurf_PHSAR>
0.503353

>  <VolSurf_LgD5>
-4.10688

>  <VolSurf_LgD6>
-4.0971

>  <VolSurf_LgD7>
-4.09611

>  <VolSurf_LgD7.5>
-4.09604

>  <VolSurf_LgD8>
-4.09601

>  <VolSurf_LgD9>
-4.09603

>  <VolSurf_LgD10>
-4.0963

>  <VolSurf_AUS7.4>
0.0

>  <VolSurf_%FU4>
0.0

>  <VolSurf_%FU5>
0.0

>  <VolSurf_%FU6>
0.0

>  <VolSurf_%FU7>
0.0

>  <VolSurf_%FU8>
0.0

>  <VolSurf_%FU9>
0.0

>  <VolSurf_%FU10>
0.0

>  <ID>
104

>  <MOKAID>
105

>  <Clearance Route>
renal

>  <PC1>
-4.81271

>  <PC2>
-1.56979

$$$$
Ceftizoxime
  -OEChem-08301611272D

 26 28  0     1  0  0  0  0  0999 V2000
   -3.6395    4.3519    0.0000 C   0  0  0  0  0  0  0  0  0  0  0  0
   -3.8983    3.3859    0.0000 O   0  0  0  0  0  0  0  0  0  0  0  0
   -4.8642    3.1271    0.0000 N   0  0  0  0  0  0  0  0  0  0  0  0
   -5.1230    2.1612    0.0000 C   0  0  0  0  0  0  0  0  0  0  0  0
   -4.4159    1.4541    0.0000 C   0  0  0  0  0  0  0  0  0  0  0  0
   -4.6748    0.4882    0.0000 O   0  0  0  0  0  0  0  0  0  0  0  0
   -3.4500    1.7129    0.0000 N   0  0  0  0  0  0  0  0  0  0  0  0
   -2.7429    1.0058    0.0000 C   0  0  1  0  0  0  0  0  0  0  0  0
   -1.7374    1.0058    0.0000 C   0  0  1  0  0  0  0  0  0  0  0  0
   -0.8713    1.5112    0.0000 S   0  0  0  0  0  0  0  0  0  0  0  0
    0.0001    1.0055    0.0000 C   0  0  0  0  0  0  0  0  0  0  0  0
   -0.0000    0.0000    0.0000 C   0  0  0  0  0  0  0  0  0  0  0  0
   -0.8716   -0.4998    0.0000 C   0  0  0  0  0  0  0  0  0  0  0  0
   -1.7375    0.0003    0.0000 N   0  0  0  0  0  0  0  0  0  0  0  0
   -2.7429    0.0003    0.0000 C   0  0  0  0  0  0  0  0  0  0  0  0
   -3.4500   -0.7068    0.0000 O   0  0  0  0  0  0  0  0  0  0  0  0
   -0.8731   -1.4998    0.0000 C   0  0  0  0  0  0  0  0  0  0  0  0
   -1.7399   -1.9985    0.0000 O   0  0  0  0  0  0  0  0  0  0  0  0
   -0.0079   -2.0011    0.0000 O   0  0  0  0  0  0  0  0  0  0  0  0
   -6.0890    1.9024    0.0000 C   0  0  0  0  0  0  0  0  0  0  0  0
   -6.4486    0.9692    0.0000 C   0  0  0  0  0  0  0  0  0  0  0  0
   -7.4477    1.0168    0.0000 S   0  0  0  0  0  0  0  0  0  0  0  0
   -7.7086    1.9868    0.0000 C   0  0  0  0  0  0  0  0  0  0  0  0
   -8.6422    2.3452    0.0000 N   0  0  0  0  0  0  0  0  0  0  0  0
   -6.8680    2.5315    0.0000 N   0  0  0  0  0  0  0  0  0  0  0  0
   -1.9985    1.9711    0.0000 H   0  0  0  0  0  0  0  0  0  0  0  0
  1  2  1  0  0  0  0
  2  3  1  0  0  0  0
  3  4  2  0  0  0  0
  4  5  1  0  0  0  0
  5  6  2  0  0  0  0
  5  7  1  0  0  0  0
  8  7  1  1  0  0  0
  8 15  1  0  0  0  0
  8  9  1  0  0  0  0
  9 14  1  0  0  0  0
  9 10  1  0  0  0  0
 10 11  1  0  0  0  0
 11 12  1  0  0  0  0
 12 13  2  0  0  0  0
 13 14  1  0  0  0  0
 14 15  1  0  0  0  0
 15 16  2  0  0  0  0
 13 17  1  0  0  0  0
 17 18  2  0  0  0  0
 17 19  1  0  0  0  0
  4 20  1  0  0  0  0
 20 25  1  0  0  0  0
 20 21  2  0  0  0  0
 21 22  1  0  0  0  0
 22 23  1  0  0  0  0
 23 24  1  0  0  0  0
 23 25  2  0  0  0  0
  9 26  1  6  0  0  0
M  END
>  <Name>
Ceftizoxime

>  <CAS #>
68401-81-0

>  <human Clearance (mL/min/kg)>
2.1

>  <Primary mechanism (metabolic, biliary or renal)>
renal

>  <seqId>
178.0

>  <Code (mechanism and clearance degree index)>
R1

>  < Five M1 and R1 test groups>
R1_2

>  <formamide>
0

>  <prodrug phosphates>
0

>  <VolSurf_V>
715.0

>  <VolSurf_S>
514.244

>  <VolSurf_R>
1.39039

>  <VolSurf_G>
1.53363

>  <VolSurf_IW1>
0.0764519

>  <VolSurf_IW2>
0.163713

>  <VolSurf_IW3>
0.502297

>  <VolSurf_IW4>
0.801176

>  <VolSurf_ID1>
0.0412731

>  <VolSurf_ID2>
0.147774

>  <VolSurf_ID3>
0.234935

>  <VolSurf_ID4>
0.314408

>  <VolSurf_HL1>
6.32258

>  <VolSurf_HL2>
5.32867

>  <VolSurf_A>
4.80903

>  <VolSurf_CP>
0.236082

>  <VolSurf_POL>
33.065

>  <VolSurf_MW>
382.395

>  <VolSurf_FLEX>
1.39365

>  <VolSurf_FLEX_RB>
0.199093

>  <VolSurf_NCC>
1.0

>  <VolSurf_LOGP n-Oct>
-0.217

>  <VolSurf_LOGP c-Hex>
-5.292

>  <VolSurf_PSA>
181.55

>  <VolSurf_HSA>
332.694

>  <VolSurf_PSAR>
0.353042

>  <VolSurf_PHSAR>
0.545696

>  <VolSurf_LgD5>
-3.18192

>  <VolSurf_LgD6>
-3.2124

>  <VolSurf_LgD7>
-3.21564

>  <VolSurf_LgD7.5>
-3.21589

>  <VolSurf_LgD8>
-3.21597

>  <VolSurf_LgD9>
-3.21607

>  <VolSurf_LgD10>
-3.21672

>  <VolSurf_AUS7.4>
0.0

>  <VolSurf_%FU4>
0.0

>  <VolSurf_%FU5>
0.0

>  <VolSurf_%FU6>
0.0

>  <VolSurf_%FU7>
0.0

>  <VolSurf_%FU8>
0.0

>  <VolSurf_%FU9>
0.0

>  <VolSurf_%FU10>
0.0

>  <ID>
105

>  <MOKAID>
106

>  <Clearance Route>
renal

>  <PC1>
-3.64828

>  <PC2>
0.591408

$$$$
Ceftobiprole
  -OEChem-08301611272D

 37 41  0     1  0  0  0  0  0999 V2000
   -4.0848    6.9003    0.0000 N   0  0  0  0  0  0  0  0  0  0  0  0
   -3.7249    5.9673    0.0000 C   0  0  0  0  0  0  0  0  0  0  0  0
   -4.2707    5.1294    0.0000 N   0  0  0  0  0  0  0  0  0  0  0  0
   -3.6395    4.3519    0.0000 C   0  0  0  0  0  0  0  0  0  0  0  0
   -2.7040    4.7097    0.0000 N   0  0  0  0  0  0  0  0  0  0  0  0
   -2.7574    5.7128    0.0000 S   0  0  0  0  0  0  0  0  0  0  0  0
   -3.8983    3.3859    0.0000 C   0  0  0  0  0  0  0  0  0  0  0  0
   -4.8642    3.1271    0.0000 N   0  0  0  0  0  0  0  0  0  0  0  0
   -5.1230    2.1612    0.0000 O   0  0  0  0  0  0  0  0  0  0  0  0
   -3.1912    2.6788    0.0000 C   0  0  0  0  0  0  0  0  0  0  0  0
   -2.2253    2.9377    0.0000 O   0  0  0  0  0  0  0  0  0  0  0  0
   -3.4500    1.7129    0.0000 N   0  0  0  0  0  0  0  0  0  0  0  0
   -2.7429    1.0058    0.0000 C   0  0  1  0  0  0  0  0  0  0  0  0
   -1.7374    1.0058    0.0000 C   0  0  1  0  0  0  0  0  0  0  0  0
   -0.8713    1.5112    0.0000 S   0  0  0  0  0  0  0  0  0  0  0  0
    0.0001    1.0055    0.0000 C   0  0  0  0  0  0  0  0  0  0  0  0
   -0.0000    0.0000    0.0000 C   0  0  0  0  0  0  0  0  0  0  0  0
   -0.8716   -0.4998    0.0000 C   0  0  0  0  0  0  0  0  0  0  0  0
   -1.7375    0.0003    0.0000 N   0  0  0  0  0  0  0  0  0  0  0  0
   -2.7429    0.0003    0.0000 C   0  0  0  0  0  0  0  0  0  0  0  0
   -3.4500   -0.7068    0.0000 O   0  0  0  0  0  0  0  0  0  0  0  0
   -0.8731   -1.4998    0.0000 C   0  0  0  0  0  0  0  0  0  0  0  0
   -1.7399   -1.9985    0.0000 O   0  0  0  0  0  0  0  0  0  0  0  0
   -0.0079   -2.0011    0.0000 O   0  0  0  0  0  0  0  0  0  0  0  0
    0.8653   -0.5013    0.0000 C   0  0  0  0  0  0  0  0  0  0  0  0
    1.7320   -0.0026    0.0000 C   0  0  0  0  0  0  0  0  0  0  0  0
    1.8371    0.9933    0.0000 C   0  0  0  0  0  0  0  0  0  0  0  0
    2.8159    1.1983    0.0000 C   0  0  0  0  0  0  0  0  0  0  0  0
    3.3188    0.3335    0.0000 N   0  0  0  0  0  0  0  0  0  0  0  0
    4.3135    0.2302    0.0000 C   0  0  2  0  0  0  0  0  0  0  0  0
    4.9818    0.9760    0.0000 C   0  0  0  0  0  0  0  0  0  0  0  0
    5.8953    0.5691    0.0000 C   0  0  0  0  0  0  0  0  0  0  0  0
    5.7966   -0.4265    0.0000 N   0  0  0  0  0  0  0  0  0  0  0  0
    4.8143   -0.6373    0.0000 C   0  0  0  0  0  0  0  0  0  0  0  0
    2.6460   -0.4125    0.0000 C   0  0  0  0  0  0  0  0  0  0  0  0
    2.8522   -1.3910    0.0000 O   0  0  0  0  0  0  0  0  0  0  0  0
   -1.9985    1.9711    0.0000 H   0  0  0  0  0  0  0  0  0  0  0  0
  1  2  1  0  0  0  0
  2  6  1  0  0  0  0
  2  3  2  0  0  0  0
  3  4  1  0  0  0  0
  4  5  2  0  0  0  0
  5  6  1  0  0  0  0
  4  7  1  0  0  0  0
  7  8  2  0  0  0  0
  8  9  1  0  0  0  0
  7 10  1  0  0  0  0
 10 11  2  0  0  0  0
 10 12  1  0  0  0  0
 13 12  1  1  0  0  0
 13 20  1  0  0  0  0
 13 14  1  0  0  0  0
 14 19  1  0  0  0  0
 14 15  1  0  0  0  0
 15 16  1  0  0  0  0
 16 17  1  0  0  0  0
 17 18  2  0  0  0  0
 18 19  1  0  0  0  0
 19 20  1  0  0  0  0
 20 21  2  0  0  0  0
 18 22  1  0  0  0  0
 22 23  2  0  0  0  0
 22 24  1  0  0  0  0
 17 25  1  0  0  0  0
 25 26  2  0  0  0  0
 26 35  1  0  0  0  0
 26 27  1  0  0  0  0
 27 28  1  0  0  0  0
 28 29  1  0  0  0  0
 30 29  1  6  0  0  0
 30 34  1  0  0  0  0
 30 31  1  0  0  0  0
 31 32  1  0  0  0  0
 32 33  1  0  0  0  0
 33 34  1  0  0  0  0
 29 35  1  0  0  0  0
 35 36  2  0  0  0  0
 14 37  1  6  0  0  0
M  END
>  <Name>
Ceftobiprole

>  <CAS #>
209467-52-7

>  <human Clearance (mL/min/kg)>
1.5

>  <Primary mechanism (metabolic, biliary or renal)>
renal

>  <seqId>
179.0

>  <Code (mechanism and clearance degree index)>
R1

>  < Five M1 and R1 test groups>
R1_3

>  <formamide>
0

>  <prodrug phosphates>
0

>  <VolSurf_V>
983.875

>  <VolSurf_S>
665.929

>  <VolSurf_R>
1.47745

>  <VolSurf_G>
1.64239

>  <VolSurf_IW1>
0.0926689

>  <VolSurf_IW2>
0.188921

>  <VolSurf_IW3>
0.448705

>  <VolSurf_IW4>
0.679358

>  <VolSurf_ID1>
0.0497946

>  <VolSurf_ID2>
0.0490981

>  <VolSurf_ID3>
0.0737245

>  <VolSurf_ID4>
0.201444

>  <VolSurf_HL1>
6.50595

>  <VolSurf_HL2>
6.13333

>  <VolSurf_A>
4.54019

>  <VolSurf_CP>
0.553612

>  <VolSurf_POL>
50.842

>  <VolSurf_MW>
534.569

>  <VolSurf_FLEX>
1.43448

>  <VolSurf_FLEX_RB>
0.17931

>  <VolSurf_NCC>
2.0

>  <VolSurf_LOGP n-Oct>
-1.543

>  <VolSurf_LOGP c-Hex>
-7.812

>  <VolSurf_PSA>
246.64

>  <VolSurf_HSA>
419.289

>  <VolSurf_PSAR>
0.37037

>  <VolSurf_PHSAR>
0.588234

>  <VolSurf_LgD5>
-3.97592

>  <VolSurf_LgD6>
-3.97558

>  <VolSurf_LgD7>
-3.97992

>  <VolSurf_LgD7.5>
-3.99025

>  <VolSurf_LgD8>
-4.02071

>  <VolSurf_LgD9>
-4.25868

>  <VolSurf_LgD10>
-4.78481

>  <VolSurf_AUS7.4>
0.0

>  <VolSurf_%FU4>
0.0

>  <VolSurf_%FU5>
0.0

>  <VolSurf_%FU6>
0.0

>  <VolSurf_%FU7>
0.0

>  <VolSurf_%FU8>
0.0

>  <VolSurf_%FU9>
0.0

>  <VolSurf_%FU10>
0.0

>  <ID>
106

>  <MOKAID>
107

>  <Clearance Route>
renal

>  <PC1>
-4.61902

>  <PC2>
-0.785841

$$$$
Ceftolozane
  -OEChem-08301611272D

 46 49  0     1  0  0  0  0  0999 V2000
    7.0270    4.2496    0.0000 N   0  0  0  0  0  0  0  0  0  0  0  0
    6.0323    4.1465    0.0000 C   0  0  0  0  0  0  0  0  0  0  0  0
    5.6243    3.2336    0.0000 C   0  0  0  0  0  0  0  0  0  0  0  0
    4.6296    3.1305    0.0000 N   0  0  0  0  0  0  0  0  0  0  0  0
    4.2216    2.2175    0.0000 C   0  0  0  0  0  0  0  0  0  0  0  0
    4.8082    1.4076    0.0000 O   0  0  0  0  0  0  0  0  0  0  0  0
    3.2269    2.1144    0.0000 N   0  0  0  0  0  0  0  0  0  0  0  0
    2.8189    1.2014    0.0000 C   0  0  0  0  0  0  0  0  0  0  0  0
    1.8392    0.9933    0.0000 C   0  0  0  0  0  0  0  0  0  0  0  0
    1.7320   -0.0026    0.0000 N   0  0  0  0  0  0  0  0  0  0  0  0
    0.8653   -0.5013    0.0000 C   0  0  0  0  0  0  0  0  0  0  0  0
    0.0000   -0.0000    0.0000 C   0  0  0  0  0  0  0  0  0  0  0  0
    0.0001    1.0055    0.0000 C   0  0  0  0  0  0  0  0  0  0  0  0
   -0.8713    1.5112    0.0000 S   0  0  0  0  0  0  0  0  0  0  0  0
   -1.7374    1.0058    0.0000 C   0  0  1  0  0  0  0  0  0  0  0  0
   -1.7375    0.0003    0.0000 N   0  0  0  0  0  0  0  0  0  0  0  0
   -2.7429    0.0003    0.0000 C   0  0  0  0  0  0  0  0  0  0  0  0
   -3.4500   -0.7068    0.0000 O   0  0  0  0  0  0  0  0  0  0  0  0
   -2.7429    1.0058    0.0000 C   0  0  1  0  0  0  0  0  0  0  0  0
   -3.4500    1.7129    0.0000 N   0  0  0  0  0  0  0  0  0  0  0  0
   -4.4159    1.4541    0.0000 C   0  0  0  0  0  0  0  0  0  0  0  0
   -4.6748    0.4882    0.0000 O   0  0  0  0  0  0  0  0  0  0  0  0
   -5.1230    2.1612    0.0000 C   0  0  0  0  0  0  0  0  0  0  0  0
   -4.8642    3.1271    0.0000 N   0  0  0  0  0  0  0  0  0  0  0  0
   -3.8983    3.3859    0.0000 O   0  0  0  0  0  0  0  0  0  0  0  0
   -3.6395    4.3519    0.0000 C   0  0  0  0  0  0  0  0  0  0  0  0
   -2.6735    4.0930    0.0000 C   0  0  0  0  0  0  0  0  0  0  0  0
   -4.6054    4.6107    0.0000 C   0  0  0  0  0  0  0  0  0  0  0  0
   -3.3807    5.3178    0.0000 C   0  0  0  0  0  0  0  0  0  0  0  0
   -4.0878    6.0249    0.0000 O   0  0  0  0  0  0  0  0  0  0  0  0
   -2.4147    5.5766    0.0000 O   0  0  0  0  0  0  0  0  0  0  0  0
   -6.0890    1.9024    0.0000 C   0  0  0  0  0  0  0  0  0  0  0  0
   -6.4467    0.9670    0.0000 N   0  0  0  0  0  0  0  0  0  0  0  0
   -7.4452    1.0207    0.0000 C   0  0  0  0  0  0  0  0  0  0  0  0
   -8.0733    0.2425    0.0000 N   0  0  0  0  0  0  0  0  0  0  0  0
   -7.7086    1.9858    0.0000 S   0  0  0  0  0  0  0  0  0  0  0  0
   -6.8666    2.5336    0.0000 N   0  0  0  0  0  0  0  0  0  0  0  0
   -0.8716   -0.4998    0.0000 C   0  0  0  0  0  0  0  0  0  0  0  0
   -0.8731   -1.4998    0.0000 C   0  0  0  0  0  0  0  0  0  0  0  0
   -1.7399   -1.9985    0.0000 O   0  0  0  0  0  0  0  0  0  0  0  0
   -0.0079   -2.0011    0.0000 O   0  0  0  0  0  0  0  0  0  0  0  0
    2.6496   -0.4118    0.0000 N   0  0  0  0  0  0  0  0  0  0  0  0
    2.8589   -1.3896    0.0000 C   0  0  0  0  0  0  0  0  0  0  0  0
    3.3165    0.3340    0.0000 C   0  0  0  0  0  0  0  0  0  0  0  0
    4.3110    0.2298    0.0000 N   0  0  0  0  0  0  0  0  0  0  0  0
   -1.9985    1.9711    0.0000 H   0  0  0  0  0  0  0  0  0  0  0  0
  1  2  1  0  0  0  0
  2  3  1  0  0  0  0
  3  4  1  0  0  0  0
  4  5  1  0  0  0  0
  5  6  2  0  0  0  0
  5  7  1  0  0  0  0
  7  8  1  0  0  0  0
  8 44  1  0  0  0  0
  8  9  2  0  0  0  0
  9 10  1  0  0  0  0
 10 11  1  0  0  0  0
 11 12  1  0  0  0  0
 12 38  2  0  0  0  0
 12 13  1  0  0  0  0
 13 14  1  0  0  0  0
 14 15  1  0  0  0  0
 15 19  1  0  0  0  0
 15 16  1  0  0  0  0
 16 17  1  0  0  0  0
 17 18  2  0  0  0  0
 17 19  1  0  0  0  0
 19 20  1  1  0  0  0
 20 21  1  0  0  0  0
 21 22  2  0  0  0  0
 21 23  1  0  0  0  0
 23 24  2  0  0  0  0
 24 25  1  0  0  0  0
 25 26  1  0  0  0  0
 26 27  1  0  0  0  0
 26 28  1  0  0  0  0
 26 29  1  0  0  0  0
 29 30  2  0  0  0  0
 29 31  1  0  0  0  0
 23 32  1  0  0  0  0
 32 37  2  0  0  0  0
 32 33  1  0  0  0  0
 33 34  2  0  0  0  0
 34 35  1  0  0  0  0
 34 36  1  0  0  0  0
 36 37  1  0  0  0  0
 16 38  1  0  0  0  0
 38 39  1  0  0  0  0
 39 40  2  0  0  0  0
 39 41  1  0  0  0  0
 10 42  1  0  0  0  0
 42 43  1  0  0  0  0
 42 44  1  0  0  0  0
 44 45  2  3  0  0  0
 15 46  1  6  0  0  0
M  END
>  <Name>
Ceftolozane

>  <CAS #>
689293-68-3

>  <human Clearance (mL/min/kg)>
1.16

>  <Primary mechanism (metabolic, biliary or renal)>
renal

>  <seqId>
180.0

>  <Code (mechanism and clearance degree index)>
R1

>  < Five M1 and R1 test groups>
R1_4

>  <formamide>
0

>  <prodrug phosphates>
0

>  <VolSurf_V>
1230.0

>  <VolSurf_S>
837.862

>  <VolSurf_R>
1.46802

>  <VolSurf_G>
1.85408

>  <VolSurf_IW1>
0.0141037

>  <VolSurf_IW2>
0.0232217

>  <VolSurf_IW3>
0.0647434

>  <VolSurf_IW4>
0.262026

>  <VolSurf_ID1>
0.01051

>  <VolSurf_ID2>
0.0270852

>  <VolSurf_ID3>
0.0338518

>  <VolSurf_ID4>
0.0332904

>  <VolSurf_HL1>
6.31222

>  <VolSurf_HL2>
5.08911

>  <VolSurf_A>
0.963419

>  <VolSurf_CP>
0.96795

>  <VolSurf_POL>
61.662

>  <VolSurf_MW>
665.682

>  <VolSurf_FLEX>
3.42795

>  <VolSurf_FLEX_RB>
0.180419

>  <VolSurf_NCC>
3.0

>  <VolSurf_LOGP n-Oct>
-4.725

>  <VolSurf_LOGP c-Hex>
-9.0

>  <VolSurf_PSA>
345.91

>  <VolSurf_HSA>
491.952

>  <VolSurf_PSAR>
0.412848

>  <VolSurf_PHSAR>
0.703138

>  <VolSurf_LgD5>
-8.58222

>  <VolSurf_LgD6>
-9.0

>  <VolSurf_LgD7>
-9.0

>  <VolSurf_LgD7.5>
-9.0

>  <VolSurf_LgD8>
-9.0

>  <VolSurf_LgD9>
-9.0

>  <VolSurf_LgD10>
-9.0

>  <VolSurf_AUS7.4>
0.0

>  <VolSurf_%FU4>
0.0

>  <VolSurf_%FU5>
0.0

>  <VolSurf_%FU6>
0.0

>  <VolSurf_%FU7>
0.0

>  <VolSurf_%FU8>
0.0

>  <VolSurf_%FU9>
0.0

>  <VolSurf_%FU10>
0.0

>  <ID>
107

>  <MOKAID>
108

>  <Clearance Route>
renal

>  <PC1>
-8.50583

>  <PC2>
-2.94503

$$$$
Cefuroxime
  -OEChem-08301611272D

 30 32  0     1  0  0  0  0  0999 V2000
   -3.6395    4.3519    0.0000 C   0  0  0  0  0  0  0  0  0  0  0  0
   -3.8983    3.3859    0.0000 O   0  0  0  0  0  0  0  0  0  0  0  0
   -4.8642    3.1271    0.0000 N   0  0  0  0  0  0  0  0  0  0  0  0
   -5.1230    2.1612    0.0000 C   0  0  0  0  0  0  0  0  0  0  0  0
   -4.4159    1.4541    0.0000 C   0  0  0  0  0  0  0  0  0  0  0  0
   -4.6748    0.4882    0.0000 O   0  0  0  0  0  0  0  0  0  0  0  0
   -3.4500    1.7129    0.0000 N   0  0  0  0  0  0  0  0  0  0  0  0
   -2.7429    1.0058    0.0000 C   0  0  1  0  0  0  0  0  0  0  0  0
   -1.7374    1.0058    0.0000 C   0  0  1  0  0  0  0  0  0  0  0  0
   -0.8713    1.5112    0.0000 S   0  0  0  0  0  0  0  0  0  0  0  0
    0.0001    1.0055    0.0000 C   0  0  0  0  0  0  0  0  0  0  0  0
   -0.0000    0.0000    0.0000 C   0  0  0  0  0  0  0  0  0  0  0  0
   -0.8716   -0.4998    0.0000 C   0  0  0  0  0  0  0  0  0  0  0  0
   -1.7375    0.0003    0.0000 N   0  0  0  0  0  0  0  0  0  0  0  0
   -2.7429    0.0003    0.0000 C   0  0  0  0  0  0  0  0  0  0  0  0
   -3.4500   -0.7068    0.0000 O   0  0  0  0  0  0  0  0  0  0  0  0
   -0.8731   -1.4998    0.0000 C   0  0  0  0  0  0  0  0  0  0  0  0
   -1.7399   -1.9985    0.0000 O   0  0  0  0  0  0  0  0  0  0  0  0
   -0.0079   -2.0011    0.0000 O   0  0  0  0  0  0  0  0  0  0  0  0
    0.8653   -0.5013    0.0000 C   0  0  0  0  0  0  0  0  0  0  0  0
    1.7320   -0.0026    0.0000 O   0  0  0  0  0  0  0  0  0  0  0  0
    2.5973   -0.5040    0.0000 C   0  0  0  0  0  0  0  0  0  0  0  0
    2.5958   -1.5040    0.0000 O   0  0  0  0  0  0  0  0  0  0  0  0
    3.4641   -0.0053    0.0000 N   0  0  0  0  0  0  0  0  0  0  0  0
   -6.0890    1.9024    0.0000 C   0  0  0  0  0  0  0  0  0  0  0  0
   -6.8703    2.5339    0.0000 O   0  0  0  0  0  0  0  0  0  0  0  0
   -7.7067    1.9848    0.0000 C   0  0  0  0  0  0  0  0  0  0  0  0
   -7.4490    1.0186    0.0000 C   0  0  0  0  0  0  0  0  0  0  0  0
   -6.4488    0.9676    0.0000 C   0  0  0  0  0  0  0  0  0  0  0  0
   -1.9985    1.9711    0.0000 H   0  0  0  0  0  0  0  0  0  0  0  0
  1  2  1  0  0  0  0
  2  3  1  0  0  0  0
  3  4  2  0  0  0  0
  4  5  1  0  0  0  0
  5  6  2  0  0  0  0
  5  7  1  0  0  0  0
  8  7  1  1  0  0  0
  8 15  1  0  0  0  0
  8  9  1  0  0  0  0
  9 14  1  0  0  0  0
  9 10  1  0  0  0  0
 10 11  1  0  0  0  0
 11 12  1  0  0  0  0
 12 13  2  0  0  0  0
 13 14  1  0  0  0  0
 14 15  1  0  0  0  0
 15 16  2  0  0  0  0
 13 17  1  0  0  0  0
 17 18  2  0  0  0  0
 17 19  1  0  0  0  0
 12 20  1  0  0  0  0
 20 21  1  0  0  0  0
 21 22  1  0  0  0  0
 22 23  2  0  0  0  0
 22 24  1  0  0  0  0
  4 25  1  0  0  0  0
 25 29  2  0  0  0  0
 25 26  1  0  0  0  0
 26 27  1  0  0  0  0
 27 28  2  0  0  0  0
 28 29  1  0  0  0  0
  9 30  1  6  0  0  0
M  END
>  <Name>
Cefuroxime

>  <CAS #>
55268-75-2

>  <human Clearance (mL/min/kg)>
2.2

>  <Primary mechanism (metabolic, biliary or renal)>
renal

>  <seqId>
182.0

>  <Code (mechanism and clearance degree index)>
R1

>  < Five M1 and R1 test groups>
R1_5

>  <formamide>
0

>  <prodrug phosphates>
0

>  <VolSurf_V>
809.375

>  <VolSurf_S>
568.684

>  <VolSurf_R>
1.42324

>  <VolSurf_G>
1.57554

>  <VolSurf_IW1>
0.0996901

>  <VolSurf_IW2>
0.19735

>  <VolSurf_IW3>
0.450648

>  <VolSurf_IW4>
0.722489

>  <VolSurf_ID1>
0.0799067

>  <VolSurf_ID2>
0.128884

>  <VolSurf_ID3>
0.216654

>  <VolSurf_ID4>
0.278782

>  <VolSurf_HL1>
6.01799

>  <VolSurf_HL2>
5.54819

>  <VolSurf_A>
5.46909

>  <VolSurf_CP>
0.257852

>  <VolSurf_POL>
35.45

>  <VolSurf_MW>
423.377

>  <VolSurf_FLEX>
1.63465

>  <VolSurf_FLEX_RB>
0.163465

>  <VolSurf_NCC>
1.0

>  <VolSurf_LOGP n-Oct>
-0.191

>  <VolSurf_LOGP c-Hex>
-5.095

>  <VolSurf_PSA>
196.59

>  <VolSurf_HSA>
372.094

>  <VolSurf_PSAR>
0.345693

>  <VolSurf_PHSAR>
0.528335

>  <VolSurf_LgD5>
-2.69905

>  <VolSurf_LgD6>
-3.10718

>  <VolSurf_LgD7>
-3.18097

>  <VolSurf_LgD7.5>
-3.18712

>  <VolSurf_LgD8>
-3.18909

>  <VolSurf_LgD9>
-3.18994

>  <VolSurf_LgD10>
-3.19032

>  <VolSurf_AUS7.4>
0.0

>  <VolSurf_%FU4>
2.06491

>  <VolSurf_%FU5>
0.210401

>  <VolSurf_%FU6>
0.02108

>  <VolSurf_%FU7>
0.0021084

>  <VolSurf_%FU8>
2.10842E-4

>  <VolSurf_%FU9>
2.10828E-5

>  <VolSurf_%FU10>
2.10683E-6

>  <ID>
108

>  <MOKAID>
109

>  <Clearance Route>
renal

>  <PC1>
-3.6530400000000003

>  <PC2>
0.344998

$$$$
Cephalexin
  -OEChem-08301611272D

 25 27  0     1  0  0  0  0  0999 V2000
    0.8653   -0.5013    0.0000 C   0  0  0  0  0  0  0  0  0  0  0  0
   -0.0000   -0.0000    0.0000 C   0  0  0  0  0  0  0  0  0  0  0  0
   -0.8716   -0.4998    0.0000 C   0  0  0  0  0  0  0  0  0  0  0  0
   -1.7375    0.0003    0.0000 N   0  0  0  0  0  0  0  0  0  0  0  0
   -1.7374    1.0058    0.0000 C   0  0  2  0  0  0  0  0  0  0  0  0
   -0.8713    1.5112    0.0000 S   0  0  0  0  0  0  0  0  0  0  0  0
    0.0001    1.0055    0.0000 C   0  0  0  0  0  0  0  0  0  0  0  0
   -2.7429    1.0058    0.0000 C   0  0  2  0  0  0  0  0  0  0  0  0
   -3.4500    1.7129    0.0000 N   0  0  0  0  0  0  0  0  0  0  0  0
   -4.4159    1.4541    0.0000 C   0  0  0  0  0  0  0  0  0  0  0  0
   -4.6748    0.4882    0.0000 O   0  0  0  0  0  0  0  0  0  0  0  0
   -5.1230    2.1612    0.0000 C   0  0  2  0  0  0  0  0  0  0  0  0
   -4.8642    3.1271    0.0000 N   0  0  0  0  0  0  0  0  0  0  0  0
   -6.0890    1.9024    0.0000 C   0  0  0  0  0  0  0  0  0  0  0  0
   -6.3463    0.9307    0.0000 C   0  0  0  0  0  0  0  0  0  0  0  0
   -7.3122    0.6718    0.0000 C   0  0  0  0  0  0  0  0  0  0  0  0
   -8.0235    1.3748    0.0000 C   0  0  0  0  0  0  0  0  0  0  0  0
   -7.7662    2.3465    0.0000 C   0  0  0  0  0  0  0  0  0  0  0  0
   -6.7976    2.6152    0.0000 C   0  0  0  0  0  0  0  0  0  0  0  0
   -2.7429    0.0003    0.0000 C   0  0  0  0  0  0  0  0  0  0  0  0
   -3.4500   -0.7068    0.0000 O   0  0  0  0  0  0  0  0  0  0  0  0
   -0.8731   -1.4998    0.0000 C   0  0  0  0  0  0  0  0  0  0  0  0
   -1.7399   -1.9985    0.0000 O   0  0  0  0  0  0  0  0  0  0  0  0
   -0.0079   -2.0011    0.0000 O   0  0  0  0  0  0  0  0  0  0  0  0
   -1.9985    1.9711    0.0000 H   0  0  0  0  0  0  0  0  0  0  0  0
  1  2  1  0  0  0  0
  2  7  1  0  0  0  0
  2  3  2  0  0  0  0
  3  4  1  0  0  0  0
  4 20  1  0  0  0  0
  4  5  1  0  0  0  0
  5  6  1  0  0  0  0
  6  7  1  0  0  0  0
  5  8  1  0  0  0  0
  8  9  1  1  0  0  0
  9 10  1  0  0  0  0
 10 11  2  0  0  0  0
 10 12  1  0  0  0  0
 12 13  1  1  0  0  0
 12 14  1  0  0  0  0
 14 19  2  0  0  0  0
 14 15  1  0  0  0  0
 15 16  2  0  0  0  0
 16 17  1  0  0  0  0
 17 18  2  0  0  0  0
 18 19  1  0  0  0  0
  8 20  1  0  0  0  0
 20 21  2  0  0  0  0
  3 22  1  0  0  0  0
 22 23  2  0  0  0  0
 22 24  1  0  0  0  0
  5 25  1  6  0  0  0
M  END
>  <Name>
Cephalexin

>  <CAS #>
15686-71-2

>  <human Clearance (mL/min/kg)>
3.9

>  <Primary mechanism (metabolic, biliary or renal)>
renal

>  <seqId>
184.0

>  <Code (mechanism and clearance degree index)>
R1

>  < Five M1 and R1 test groups>
R1_3

>  <formamide>
0

>  <prodrug phosphates>
0

>  <VolSurf_V>
718.5

>  <VolSurf_S>
498.951

>  <VolSurf_R>
1.44002

>  <VolSurf_G>
1.45859

>  <VolSurf_IW1>
0.042615

>  <VolSurf_IW2>
0.111568

>  <VolSurf_IW3>
0.30776

>  <VolSurf_IW4>
0.502309

>  <VolSurf_ID1>
0.0443089

>  <VolSurf_ID2>
0.0588287

>  <VolSurf_ID3>
0.167158

>  <VolSurf_ID4>
0.0

>  <VolSurf_HL1>
9.77397

>  <VolSurf_HL2>
17.0408

>  <VolSurf_A>
2.74344

>  <VolSurf_CP>
0.290821

>  <VolSurf_POL>
34.778

>  <VolSurf_MW>
347.389

>  <VolSurf_FLEX>
1.2294

>  <VolSurf_FLEX_RB>
0.2049

>  <VolSurf_NCC>
2.0

>  <VolSurf_LOGP n-Oct>
-0.271

>  <VolSurf_LOGP c-Hex>
-2.575

>  <VolSurf_PSA>
141.68

>  <VolSurf_HSA>
357.271

>  <VolSurf_PSAR>
0.283956

>  <VolSurf_PHSAR>
0.396562

>  <VolSurf_LgD5>
-1.44919

>  <VolSurf_LgD6>
-1.45544

>  <VolSurf_LgD7>
-1.53031

>  <VolSurf_LgD7.5>
-1.67026

>  <VolSurf_LgD8>
-1.94053

>  <VolSurf_LgD9>
-2.75691

>  <VolSurf_LgD10>
-3.4763

>  <VolSurf_AUS7.4>
0.0

>  <VolSurf_%FU4>
0.0

>  <VolSurf_%FU5>
0.0

>  <VolSurf_%FU6>
0.0

>  <VolSurf_%FU7>
0.0

>  <VolSurf_%FU8>
0.0

>  <VolSurf_%FU9>
0.0

>  <VolSurf_%FU10>
0.0

>  <ID>
109

>  <MOKAID>
110

>  <Clearance Route>
renal

>  <PC1>
-2.28012

>  <PC2>
0.412973

$$$$
Cephaloridine
  -OEChem-08301611272D

 29 32  0     1  0  0  0  0  0999 V2000
   -1.7399   -1.9985    0.0000 O   0  5  0  0  0  0  0  0  0  0  0  0
   -0.8731   -1.4998    0.0000 C   0  0  0  0  0  0  0  0  0  0  0  0
   -0.0079   -2.0011    0.0000 O   0  0  0  0  0  0  0  0  0  0  0  0
   -0.8716   -0.4998    0.0000 C   0  0  0  0  0  0  0  0  0  0  0  0
    0.0000    0.0000    0.0000 C   0  0  0  0  0  0  0  0  0  0  0  0
    0.8653   -0.5013    0.0000 C   0  0  0  0  0  0  0  0  0  0  0  0
    1.7320   -0.0026    0.0000 N   0  3  0  0  0  0  0  0  0  0  0  0
    2.6047   -0.5014    0.0000 C   0  0  0  0  0  0  0  0  0  0  0  0
    3.4760   -0.0001    0.0000 C   0  0  0  0  0  0  0  0  0  0  0  0
    3.4746    0.9999    0.0000 C   0  0  0  0  0  0  0  0  0  0  0  0
    2.6108    1.5038    0.0000 C   0  0  0  0  0  0  0  0  0  0  0  0
    1.7395    1.0025    0.0000 C   0  0  0  0  0  0  0  0  0  0  0  0
    0.0001    1.0055    0.0000 C   0  0  0  0  0  0  0  0  0  0  0  0
   -0.8713    1.5112    0.0000 S   0  0  0  0  0  0  0  0  0  0  0  0
   -1.7374    1.0058    0.0000 C   0  0  2  0  0  0  0  0  0  0  0  0
   -2.7429    1.0058    0.0000 C   0  0  2  0  0  0  0  0  0  0  0  0
   -3.4500    1.7129    0.0000 N   0  0  0  0  0  0  0  0  0  0  0  0
   -4.4159    1.4541    0.0000 C   0  0  0  0  0  0  0  0  0  0  0  0
   -4.6748    0.4882    0.0000 O   0  0  0  0  0  0  0  0  0  0  0  0
   -5.1230    2.1612    0.0000 C   0  0  0  0  0  0  0  0  0  0  0  0
   -6.0890    1.9024    0.0000 C   0  0  0  0  0  0  0  0  0  0  0  0
   -6.4488    0.9676    0.0000 C   0  0  0  0  0  0  0  0  0  0  0  0
   -7.4490    1.0186    0.0000 C   0  0  0  0  0  0  0  0  0  0  0  0
   -7.7067    1.9848    0.0000 C   0  0  0  0  0  0  0  0  0  0  0  0
   -6.8703    2.5339    0.0000 S   0  0  0  0  0  0  0  0  0  0  0  0
   -2.7429    0.0003    0.0000 C   0  0  0  0  0  0  0  0  0  0  0  0
   -3.4500   -0.7068    0.0000 O   0  0  0  0  0  0  0  0  0  0  0  0
   -1.7375    0.0003    0.0000 N   0  0  0  0  0  0  0  0  0  0  0  0
   -1.9985    1.9711    0.0000 H   0  0  0  0  0  0  0  0  0  0  0  0
  1  2  1  0  0  0  0
  2  3  2  0  0  0  0
  2  4  1  0  0  0  0
  4 28  1  0  0  0  0
  4  5  2  0  0  0  0
  5  6  1  0  0  0  0
  6  7  1  0  0  0  0
  7 12  2  0  0  0  0
  7  8  1  0  0  0  0
  8  9  2  0  0  0  0
  9 10  1  0  0  0  0
 10 11  2  0  0  0  0
 11 12  1  0  0  0  0
  5 13  1  0  0  0  0
 13 14  1  0  0  0  0
 14 15  1  0  0  0  0
 15 28  1  0  0  0  0
 15 16  1  0  0  0  0
 16 17  1  1  0  0  0
 17 18  1  0  0  0  0
 18 19  2  0  0  0  0
 18 20  1  0  0  0  0
 20 21  1  0  0  0  0
 21 25  1  0  0  0  0
 21 22  2  0  0  0  0
 22 23  1  0  0  0  0
 23 24  2  0  0  0  0
 24 25  1  0  0  0  0
 16 26  1  0  0  0  0
 26 27  2  0  0  0  0
 26 28  1  0  0  0  0
 15 29  1  6  0  0  0
M  CHG  2   1  -1   7   1
M  END
>  <Name>
Cephaloridine

>  <CAS #>
50-59-9

>  <human Clearance (mL/min/kg)>
3.3

>  <Primary mechanism (metabolic, biliary or renal)>
renal

>  <seqId>
185.0

>  <Code (mechanism and clearance degree index)>
R1

>  < Five M1 and R1 test groups>
R1_4

>  <formamide>
0

>  <prodrug phosphates>
0

>  <VolSurf_V>
842.625

>  <VolSurf_S>
579.584

>  <VolSurf_R>
1.45384

>  <VolSurf_G>
1.55709

>  <VolSurf_IW1>
0.0772038

>  <VolSurf_IW2>
0.222097

>  <VolSurf_IW3>
0.71575

>  <VolSurf_IW4>
1.07177

>  <VolSurf_ID1>
0.0413607

>  <VolSurf_ID2>
0.07562

>  <VolSurf_ID3>
0.113291

>  <VolSurf_ID4>
0.204378

>  <VolSurf_HL1>
2.28788

>  <VolSurf_HL2>
2.375

>  <VolSurf_A>
5.63507

>  <VolSurf_CP>
0.855219

>  <VolSurf_POL>
39.134

>  <VolSurf_MW>
415.486

>  <VolSurf_FLEX>
1.51564

>  <VolSurf_FLEX_RB>
0.252606

>  <VolSurf_NCC>
2.0

>  <VolSurf_LOGP n-Oct>
-1.498

>  <VolSurf_LOGP c-Hex>
-1.965

>  <VolSurf_PSA>
123.17

>  <VolSurf_HSA>
456.414

>  <VolSurf_PSAR>
0.212514

>  <VolSurf_PHSAR>
0.269865

>  <VolSurf_LgD5>
-0.532502

>  <VolSurf_LgD6>
-0.530251

>  <VolSurf_LgD7>
-0.530025

>  <VolSurf_LgD7.5>
-0.530008

>  <VolSurf_LgD8>
-0.530003

>  <VolSurf_LgD9>
-0.530002

>  <VolSurf_LgD10>
-0.530018

>  <VolSurf_AUS7.4>
0.0

>  <VolSurf_%FU4>
0.0

>  <VolSurf_%FU5>
0.0

>  <VolSurf_%FU6>
0.0

>  <VolSurf_%FU7>
0.0

>  <VolSurf_%FU8>
0.0

>  <VolSurf_%FU9>
0.0

>  <VolSurf_%FU10>
0.0

>  <ID>
110

>  <MOKAID>
111

>  <Clearance Route>
renal

>  <PC1>
-1.33779

>  <PC2>
-0.158581

$$$$
Cephapirin
  -OEChem-08301611272D

 29 31  0     1  0  0  0  0  0999 V2000
    1.7275   -3.0026    0.0000 C   0  0  0  0  0  0  0  0  0  0  0  0
    1.7290   -2.0026    0.0000 C   0  0  0  0  0  0  0  0  0  0  0  0
    2.5958   -1.5040    0.0000 O   0  0  0  0  0  0  0  0  0  0  0  0
    0.8637   -1.5013    0.0000 O   0  0  0  0  0  0  0  0  0  0  0  0
    0.8653   -0.5013    0.0000 C   0  0  0  0  0  0  0  0  0  0  0  0
   -0.0000   -0.0000    0.0000 C   0  0  0  0  0  0  0  0  0  0  0  0
   -0.8716   -0.4998    0.0000 C   0  0  0  0  0  0  0  0  0  0  0  0
   -1.7375    0.0003    0.0000 N   0  0  0  0  0  0  0  0  0  0  0  0
   -1.7374    1.0058    0.0000 C   0  0  2  0  0  0  0  0  0  0  0  0
   -0.8713    1.5112    0.0000 S   0  0  0  0  0  0  0  0  0  0  0  0
    0.0001    1.0055    0.0000 C   0  0  0  0  0  0  0  0  0  0  0  0
   -2.7429    1.0058    0.0000 C   0  0  2  0  0  0  0  0  0  0  0  0
   -3.4500    1.7129    0.0000 N   0  0  0  0  0  0  0  0  0  0  0  0
   -4.4159    1.4541    0.0000 C   0  0  0  0  0  0  0  0  0  0  0  0
   -4.6748    0.4882    0.0000 O   0  0  0  0  0  0  0  0  0  0  0  0
   -5.1230    2.1612    0.0000 C   0  0  0  0  0  0  0  0  0  0  0  0
   -6.0890    1.9024    0.0000 S   0  0  0  0  0  0  0  0  0  0  0  0
   -6.7961    2.6095    0.0000 C   0  0  0  0  0  0  0  0  0  0  0  0
   -7.7613    2.3479    0.0000 C   0  0  0  0  0  0  0  0  0  0  0  0
   -8.4721    3.0586    0.0000 C   0  0  0  0  0  0  0  0  0  0  0  0
   -8.2176    4.0311    0.0000 N   0  0  0  0  0  0  0  0  0  0  0  0
   -7.2452    4.2855    0.0000 C   0  0  0  0  0  0  0  0  0  0  0  0
   -6.5344    3.5747    0.0000 C   0  0  0  0  0  0  0  0  0  0  0  0
   -2.7429    0.0003    0.0000 C   0  0  0  0  0  0  0  0  0  0  0  0
   -3.4500   -0.7068    0.0000 O   0  0  0  0  0  0  0  0  0  0  0  0
   -0.8731   -1.4998    0.0000 C   0  0  0  0  0  0  0  0  0  0  0  0
   -1.7399   -1.9985    0.0000 O   0  0  0  0  0  0  0  0  0  0  0  0
   -0.0079   -2.0011    0.0000 O   0  0  0  0  0  0  0  0  0  0  0  0
   -1.9985    1.9711    0.0000 H   0  0  0  0  0  0  0  0  0  0  0  0
  1  2  1  0  0  0  0
  2  3  2  0  0  0  0
  2  4  1  0  0  0  0
  4  5  1  0  0  0  0
  5  6  1  0  0  0  0
  6 11  1  0  0  0  0
  6  7  2  0  0  0  0
  7  8  1  0  0  0  0
  8 24  1  0  0  0  0
  8  9  1  0  0  0  0
  9 10  1  0  0  0  0
 10 11  1  0  0  0  0
  9 12  1  0  0  0  0
 12 13  1  1  0  0  0
 13 14  1  0  0  0  0
 14 15  2  0  0  0  0
 14 16  1  0  0  0  0
 16 17  1  0  0  0  0
 17 18  1  0  0  0  0
 18 23  2  0  0  0  0
 18 19  1  0  0  0  0
 19 20  2  0  0  0  0
 20 21  1  0  0  0  0
 21 22  2  0  0  0  0
 22 23  1  0  0  0  0
 12 24  1  0  0  0  0
 24 25  2  0  0  0  0
  7 26  1  0  0  0  0
 26 27  2  0  0  0  0
 26 28  1  0  0  0  0
  9 29  1  6  0  0  0
M  END
>  <Name>
Cephapirin

>  <CAS #>
21593-23-7

>  <human Clearance (mL/min/kg)>
2.7

>  <Primary mechanism (metabolic, biliary or renal)>
renal

>  <seqId>
187.0

>  <Code (mechanism and clearance degree index)>
R1

>  < Five M1 and R1 test groups>
R1_3

>  <formamide>
0

>  <prodrug phosphates>
0

>  <VolSurf_V>
840.625

>  <VolSurf_S>
585.802

>  <VolSurf_R>
1.435

>  <VolSurf_G>
1.58598

>  <VolSurf_IW1>
0.0628662

>  <VolSurf_IW2>
0.159878

>  <VolSurf_IW3>
0.498302

>  <VolSurf_IW4>
0.996673

>  <VolSurf_ID1>
0.0756535

>  <VolSurf_ID2>
0.189683

>  <VolSurf_ID3>
0.320963

>  <VolSurf_ID4>
0.490992

>  <VolSurf_HL1>
5.22

>  <VolSurf_HL2>
5.175

>  <VolSurf_A>
7.71507

>  <VolSurf_CP>
0.178884

>  <VolSurf_POL>
37.888

>  <VolSurf_MW>
422.455

>  <VolSurf_FLEX>
2.39814

>  <VolSurf_FLEX_RB>
0.26646

>  <VolSurf_NCC>
1.0

>  <VolSurf_LOGP n-Oct>
-0.632

>  <VolSurf_LOGP c-Hex>
-3.937

>  <VolSurf_PSA>
157.77

>  <VolSurf_HSA>
428.032

>  <VolSurf_PSAR>
0.269323

>  <VolSurf_PHSAR>
0.368594

>  <VolSurf_LgD5>
-2.9959

>  <VolSurf_LgD6>
-3.26559

>  <VolSurf_LgD7>
-3.55629

>  <VolSurf_LgD7.5>
-3.60515

>  <VolSurf_LgD8>
-3.62257

>  <VolSurf_LgD9>
-3.63015

>  <VolSurf_LgD10>
-3.63094

>  <VolSurf_AUS7.4>
0.0

>  <VolSurf_%FU4>
0.0

>  <VolSurf_%FU5>
0.0

>  <VolSurf_%FU6>
0.0

>  <VolSurf_%FU7>
0.0

>  <VolSurf_%FU8>
0.0

>  <VolSurf_%FU9>
0.0

>  <VolSurf_%FU10>
0.0

>  <ID>
111

>  <MOKAID>
112

>  <Clearance Route>
renal

>  <PC1>
-3.40875

>  <PC2>
0.0963184

$$$$
Cephradine
  -OEChem-08301611272D

 25 27  0     1  0  0  0  0  0999 V2000
    0.8653   -0.5013    0.0000 C   0  0  0  0  0  0  0  0  0  0  0  0
   -0.0000   -0.0000    0.0000 C   0  0  0  0  0  0  0  0  0  0  0  0
   -0.8716   -0.4998    0.0000 C   0  0  0  0  0  0  0  0  0  0  0  0
   -1.7375    0.0003    0.0000 N   0  0  0  0  0  0  0  0  0  0  0  0
   -1.7374    1.0058    0.0000 C   0  0  2  0  0  0  0  0  0  0  0  0
   -0.8713    1.5112    0.0000 S   0  0  0  0  0  0  0  0  0  0  0  0
    0.0001    1.0055    0.0000 C   0  0  0  0  0  0  0  0  0  0  0  0
   -2.7429    1.0058    0.0000 C   0  0  2  0  0  0  0  0  0  0  0  0
   -3.4500    1.7129    0.0000 N   0  0  0  0  0  0  0  0  0  0  0  0
   -4.4159    1.4541    0.0000 C   0  0  0  0  0  0  0  0  0  0  0  0
   -4.6748    0.4882    0.0000 O   0  0  0  0  0  0  0  0  0  0  0  0
   -5.1230    2.1612    0.0000 C   0  0  2  0  0  0  0  0  0  0  0  0
   -4.8642    3.1271    0.0000 N   0  0  0  0  0  0  0  0  0  0  0  0
   -6.0890    1.9024    0.0000 C   0  0  0  0  0  0  0  0  0  0  0  0
   -6.3463    0.9307    0.0000 C   0  0  0  0  0  0  0  0  0  0  0  0
   -7.3122    0.6718    0.0000 C   0  0  0  0  0  0  0  0  0  0  0  0
   -8.0235    1.3748    0.0000 C   0  0  0  0  0  0  0  0  0  0  0  0
   -7.7662    2.3465    0.0000 C   0  0  0  0  0  0  0  0  0  0  0  0
   -6.7976    2.6152    0.0000 C   0  0  0  0  0  0  0  0  0  0  0  0
   -2.7429    0.0003    0.0000 C   0  0  0  0  0  0  0  0  0  0  0  0
   -3.4500   -0.7068    0.0000 O   0  0  0  0  0  0  0  0  0  0  0  0
   -0.8731   -1.4998    0.0000 C   0  0  0  0  0  0  0  0  0  0  0  0
   -1.7399   -1.9985    0.0000 O   0  0  0  0  0  0  0  0  0  0  0  0
   -0.0079   -2.0011    0.0000 O   0  0  0  0  0  0  0  0  0  0  0  0
   -1.9985    1.9711    0.0000 H   0  0  0  0  0  0  0  0  0  0  0  0
  1  2  1  0  0  0  0
  2  7  1  0  0  0  0
  2  3  2  0  0  0  0
  3  4  1  0  0  0  0
  4 20  1  0  0  0  0
  4  5  1  0  0  0  0
  5  6  1  0  0  0  0
  6  7  1  0  0  0  0
  5  8  1  0  0  0  0
  8  9  1  1  0  0  0
  9 10  1  0  0  0  0
 10 11  2  0  0  0  0
 10 12  1  0  0  0  0
 12 13  1  1  0  0  0
 12 14  1  0  0  0  0
 14 19  1  0  0  0  0
 14 15  2  0  0  0  0
 15 16  1  0  0  0  0
 16 17  1  0  0  0  0
 17 18  2  0  0  0  0
 18 19  1  0  0  0  0
  8 20  1  0  0  0  0
 20 21  2  0  0  0  0
  3 22  1  0  0  0  0
 22 23  2  0  0  0  0
 22 24  1  0  0  0  0
  5 25  1  6  0  0  0
M  END
>  <Name>
Cephradine

>  <CAS #>
38821-53-3

>  <human Clearance (mL/min/kg)>
3.3

>  <Primary mechanism (metabolic, biliary or renal)>
renal

>  <seqId>
188.0

>  <Code (mechanism and clearance degree index)>
R1

>  < Five M1 and R1 test groups>
R1_5

>  <formamide>
0

>  <prodrug phosphates>
0

>  <VolSurf_V>
729.0

>  <VolSurf_S>
504.519

>  <VolSurf_R>
1.44494

>  <VolSurf_G>
1.46172

>  <VolSurf_IW1>
0.0498862

>  <VolSurf_IW2>
0.124791

>  <VolSurf_IW3>
0.307984

>  <VolSurf_IW4>
0.464472

>  <VolSurf_ID1>
0.0438813

>  <VolSurf_ID2>
0.0647687

>  <VolSurf_ID3>
0.177227

>  <VolSurf_ID4>
0.0

>  <VolSurf_HL1>
10.4706

>  <VolSurf_HL2>
17.4375

>  <VolSurf_A>
2.68259

>  <VolSurf_CP>
0.248537

>  <VolSurf_POL>
34.97

>  <VolSurf_MW>
349.405

>  <VolSurf_FLEX>
1.26024

>  <VolSurf_FLEX_RB>
0.210041

>  <VolSurf_NCC>
2.0

>  <VolSurf_LOGP n-Oct>
0.482

>  <VolSurf_LOGP c-Hex>
-3.75

>  <VolSurf_PSA>
141.68

>  <VolSurf_HSA>
362.839

>  <VolSurf_PSAR>
0.280822

>  <VolSurf_PHSAR>
0.390476

>  <VolSurf_LgD5>
-1.82146

>  <VolSurf_LgD6>
-1.82893

>  <VolSurf_LgD7>
-1.91342

>  <VolSurf_LgD7.5>
-2.06104

>  <VolSurf_LgD8>
-2.31468

>  <VolSurf_LgD9>
-2.83138

>  <VolSurf_LgD10>
-2.99457

>  <VolSurf_AUS7.4>
0.0

>  <VolSurf_%FU4>
0.0

>  <VolSurf_%FU5>
0.0

>  <VolSurf_%FU6>
0.0

>  <VolSurf_%FU7>
0.0

>  <VolSurf_%FU8>
0.0

>  <VolSurf_%FU9>
0.0

>  <VolSurf_%FU10>
0.0

>  <ID>
112

>  <MOKAID>
113

>  <Clearance Route>
renal

>  <PC1>
-2.3748299999999998

>  <PC2>
0.607585

$$$$
Cerivastatin
  -OEChem-08301611272D

 33 34  0     1  0  0  0  0  0999 V2000
   -2.5966   -1.5050    0.0000 C   0  0  0  0  0  0  0  0  0  0  0  0
   -1.7313   -1.0038    0.0000 O   0  0  0  0  0  0  0  0  0  0  0  0
   -1.7328   -0.0038    0.0000 C   0  0  0  0  0  0  0  0  0  0  0  0
   -0.8675    0.4975    0.0000 C   0  0  0  0  0  0  0  0  0  0  0  0
   -0.8675    1.5027    0.0000 C   0  0  0  0  0  0  0  0  0  0  0  0
    0.0000    2.0104    0.0000 N   0  0  0  0  0  0  0  0  0  0  0  0
    0.8675    1.5027    0.0000 C   0  0  0  0  0  0  0  0  0  0  0  0
    1.7350    2.0001    0.0000 C   0  0  0  0  0  0  0  0  0  0  0  0
    1.7379    3.0001    0.0000 C   0  0  0  0  0  0  0  0  0  0  0  0
    2.5995    1.4976    0.0000 C   0  0  0  0  0  0  0  0  0  0  0  0
    0.8675    0.4975    0.0000 C   0  0  0  0  0  0  0  0  0  0  0  0
    1.7328   -0.0038    0.0000 C   0  0  0  0  0  0  0  0  0  0  0  0
    2.5995    0.4950    0.0000 C   0  0  0  0  0  0  0  0  0  0  0  0
    3.4648   -0.0063    0.0000 C   0  0  1  0  0  0  0  0  0  0  0  0
    3.4634   -1.0063    0.0000 O   0  0  0  0  0  0  0  0  0  0  0  0
    4.3316    0.4925    0.0000 C   0  0  0  0  0  0  0  0  0  0  0  0
    5.1969   -0.0088    0.0000 C   0  0  1  0  0  0  0  0  0  0  0  0
    5.1954   -1.0088    0.0000 O   0  0  0  0  0  0  0  0  0  0  0  0
    6.0636    0.4900    0.0000 C   0  0  0  0  0  0  0  0  0  0  0  0
    6.9289   -0.0113    0.0000 C   0  0  0  0  0  0  0  0  0  0  0  0
    6.9275   -1.0113    0.0000 O   0  0  0  0  0  0  0  0  0  0  0  0
    7.7957    0.4874    0.0000 O   0  0  0  0  0  0  0  0  0  0  0  0
    0.0000    0.0000    0.0000 C   0  0  0  0  0  0  0  0  0  0  0  0
   -0.0000   -1.0000    0.0000 C   0  0  0  0  0  0  0  0  0  0  0  0
    0.8720   -1.5000    0.0000 C   0  0  0  0  0  0  0  0  0  0  0  0
    0.8721   -2.5001    0.0000 C   0  0  0  0  0  0  0  0  0  0  0  0
    0.0089   -3.0051    0.0000 C   0  0  0  0  0  0  0  0  0  0  0  0
    0.0133   -4.0051    0.0000 F   0  0  0  0  0  0  0  0  0  0  0  0
   -0.8631   -2.5051    0.0000 C   0  0  0  0  0  0  0  0  0  0  0  0
   -0.8720   -1.5000    0.0000 C   0  0  0  0  0  0  0  0  0  0  0  0
   -1.7350    2.0001    0.0000 C   0  0  0  0  0  0  0  0  0  0  0  0
   -2.5995    1.4976    0.0000 C   0  0  0  0  0  0  0  0  0  0  0  0
   -1.7379    3.0001    0.0000 C   0  0  0  0  0  0  0  0  0  0  0  0
  1  2  1  0  0  0  0
  2  3  1  0  0  0  0
  3  4  1  0  0  0  0
  4 23  2  0  0  0  0
  4  5  1  0  0  0  0
  5  6  2  0  0  0  0
  6  7  1  0  0  0  0
  7  8  1  0  0  0  0
  8  9  1  0  0  0  0
  8 10  1  0  0  0  0
  7 11  2  0  0  0  0
 11 12  1  0  0  0  0
 12 13  2  0  0  0  0
 13 14  1  0  0  0  0
 14 15  1  6  0  0  0
 14 16  1  0  0  0  0
 16 17  1  0  0  0  0
 17 18  1  6  0  0  0
 17 19  1  0  0  0  0
 19 20  1  0  0  0  0
 20 21  2  0  0  0  0
 20 22  1  0  0  0  0
 11 23  1  0  0  0  0
 23 24  1  0  0  0  0
 24 30  2  0  0  0  0
 24 25  1  0  0  0  0
 25 26  2  0  0  0  0
 26 27  1  0  0  0  0
 27 28  1  0  0  0  0
 27 29  2  0  0  0  0
 29 30  1  0  0  0  0
  5 31  1  0  0  0  0
 31 32  1  0  0  0  0
 31 33  1  0  0  0  0
M  END
>  <Name>
Cerivastatin

>  <CAS #>
145599-86-6

>  <human Clearance (mL/min/kg)>
2.9

>  <Primary mechanism (metabolic, biliary or renal)>
metabolic

>  <seqId>
189.0

>  <Code (mechanism and clearance degree index)>
M1

>  < Five M1 and R1 test groups>
M1_2

>  <formamide>
0

>  <prodrug phosphates>
0

>  <VolSurf_V>
1026.62

>  <VolSurf_S>
674.478

>  <VolSurf_R>
1.5221

>  <VolSurf_G>
1.6044

>  <VolSurf_IW1>
0.129338

>  <VolSurf_IW2>
0.295867

>  <VolSurf_IW3>
0.670493

>  <VolSurf_IW4>
1.1301

>  <VolSurf_ID1>
0.0516378

>  <VolSurf_ID2>
0.104571

>  <VolSurf_ID3>
0.146727

>  <VolSurf_ID4>
0.195647

>  <VolSurf_HL1>
6.132

>  <VolSurf_HL2>
4.48503

>  <VolSurf_A>
7.43075

>  <VolSurf_CP>
0.27012

>  <VolSurf_POL>
48.654

>  <VolSurf_MW>
458.542

>  <VolSurf_FLEX>
2.1954

>  <VolSurf_FLEX_RB>
0.121967

>  <VolSurf_NCC>
1.0

>  <VolSurf_LOGP n-Oct>
4.276

>  <VolSurf_LOGP c-Hex>
-0.683

>  <VolSurf_PSA>
117.14

>  <VolSurf_HSA>
557.338

>  <VolSurf_PSAR>
0.173675

>  <VolSurf_PHSAR>
0.210178

>  <VolSurf_LgD5>
1.89386

>  <VolSurf_LgD6>
1.68284

>  <VolSurf_LgD7>
1.18614

>  <VolSurf_LgD7.5>
1.03337

>  <VolSurf_LgD8>
0.966047

>  <VolSurf_LgD9>
0.933716

>  <VolSurf_LgD10>
0.929815

>  <VolSurf_AUS7.4>
0.0

>  <VolSurf_%FU4>
0.0

>  <VolSurf_%FU5>
0.0

>  <VolSurf_%FU6>
0.0

>  <VolSurf_%FU7>
0.0

>  <VolSurf_%FU8>
0.0

>  <VolSurf_%FU9>
0.0

>  <VolSurf_%FU10>
0.0

>  <ID>
113

>  <MOKAID>
114

>  <Clearance Route>
possible billary

>  <PC1>
0.5434220000000001

>  <PC2>
-1.3632

$$$$
CGP36742
  -OEChem-08301611272D

 11 10  0     1  0  0  0  0  0999 V2000
    0.0000    0.0000    0.0000 O   0  0  0  0  0  0  0  0  0  0  0  0
    1.0000    0.0000    0.0000 P   0  0  1  0  0  0  0  0  0  0  0  0
    2.0000   -0.0000    0.0000 O   0  0  0  0  0  0  0  0  0  0  0  0
    1.0000    1.0000    0.0000 C   0  0  0  0  0  0  0  0  0  0  0  0
    0.1340    1.5000    0.0000 C   0  0  0  0  0  0  0  0  0  0  0  0
    0.1340    2.5000    0.0000 C   0  0  0  0  0  0  0  0  0  0  0  0
   -0.7321    3.0000    0.0000 C   0  0  0  0  0  0  0  0  0  0  0  0
    1.0000   -1.0000    0.0000 C   0  0  0  0  0  0  0  0  0  0  0  0
    1.8660   -1.5000    0.0000 C   0  0  0  0  0  0  0  0  0  0  0  0
    1.8660   -2.5000    0.0000 C   0  0  0  0  0  0  0  0  0  0  0  0
    2.7321   -3.0000    0.0000 N   0  0  0  0  0  0  0  0  0  0  0  0
  1  2  2  0  0  0  0
  2  3  1  6  0  0  0
  2  4  1  0  0  0  0
  4  5  1  0  0  0  0
  5  6  1  0  0  0  0
  6  7  1  0  0  0  0
  2  8  1  0  0  0  0
  8  9  1  0  0  0  0
  9 10  1  0  0  0  0
 10 11  1  0  0  0  0
M  END
>  <Name>
CGP36742

>  <CAS #>
123690-78-8

>  <human Clearance (mL/min/kg)>
1.56

>  <Primary mechanism (metabolic, biliary or renal)>
renal

>  <seqId>
191.0

>  <Code (mechanism and clearance degree index)>
R1

>  < Five M1 and R1 test groups>
R1_2

>  <formamide>
0

>  <prodrug phosphates>
0

>  <VolSurf_V>
473.875

>  <VolSurf_S>
354.824

>  <VolSurf_R>
1.33552

>  <VolSurf_G>
1.32626

>  <VolSurf_IW1>
0.165128

>  <VolSurf_IW2>
0.312585

>  <VolSurf_IW3>
0.554034

>  <VolSurf_IW4>
1.93958

>  <VolSurf_ID1>
0.0794213

>  <VolSurf_ID2>
0.117879

>  <VolSurf_ID3>
0.0

>  <VolSurf_ID4>
0.0

>  <VolSurf_HL1>
48.0

>  <VolSurf_HL2>
96.25

>  <VolSurf_A>
4.40025

>  <VolSurf_CP>
0.0346666

>  <VolSurf_POL>
22.377

>  <VolSurf_MW>
179.197

>  <VolSurf_FLEX>
1.61183

>  <VolSurf_FLEX_RB>
0.201478

>  <VolSurf_NCC>
2.0

>  <VolSurf_LOGP n-Oct>
0.684

>  <VolSurf_LOGP c-Hex>
-1.478

>  <VolSurf_PSA>
68.75

>  <VolSurf_HSA>
286.074

>  <VolSurf_PSAR>
0.193758

>  <VolSurf_PHSAR>
0.240322

>  <VolSurf_LgD5>
-1.62794

>  <VolSurf_LgD6>
-1.61723

>  <VolSurf_LgD7>
-1.61619

>  <VolSurf_LgD7.5>
-1.61626

>  <VolSurf_LgD8>
-1.6167

>  <VolSurf_LgD9>
-1.62286

>  <VolSurf_LgD10>
-1.67958

>  <VolSurf_AUS7.4>
0.0

>  <VolSurf_%FU4>
0.0

>  <VolSurf_%FU5>
0.0

>  <VolSurf_%FU6>
0.0

>  <VolSurf_%FU7>
0.0

>  <VolSurf_%FU8>
0.0

>  <VolSurf_%FU9>
0.0

>  <VolSurf_%FU10>
0.0

>  <ID>
114

>  <MOKAID>
115

>  <Clearance Route>
uncertain

>  <PC1>
-1.48579

>  <PC2>
3.45247

$$$$
Chloramphenicol
  -OEChem-08301611272D

 20 20  0     1  0  0  0  0  0999 V2000
    4.3316    1.4925    0.0000 O   0  0  0  0  0  0  0  0  0  0  0  0
    3.4670    1.9950    0.0000 C   0  0  0  0  0  0  0  0  0  0  0  0
    2.5995    1.4976    0.0000 C   0  0  1  0  0  0  0  0  0  0  0  0
    2.5966    0.4976    0.0000 N   0  0  0  0  0  0  0  0  0  0  0  0
    3.4611   -0.0050    0.0000 C   0  0  0  0  0  0  0  0  0  0  0  0
    4.3286    0.4925    0.0000 O   0  0  0  0  0  0  0  0  0  0  0  0
    3.4582   -1.0050    0.0000 C   0  0  0  0  0  0  0  0  0  0  0  0
    4.3227   -1.5075    0.0000 Cl  0  0  0  0  0  0  0  0  0  0  0  0
    2.5907   -1.5024    0.0000 Cl  0  0  0  0  0  0  0  0  0  0  0  0
    1.7350    2.0001    0.0000 C   0  0  2  0  0  0  0  0  0  0  0  0
    1.7379    3.0001    0.0000 O   0  0  0  0  0  0  0  0  0  0  0  0
    0.8675    1.5027    0.0000 C   0  0  0  0  0  0  0  0  0  0  0  0
    0.8675    0.4975    0.0000 C   0  0  0  0  0  0  0  0  0  0  0  0
    0.0000    0.0000    0.0000 C   0  0  0  0  0  0  0  0  0  0  0  0
   -0.8675    0.4975    0.0000 C   0  0  0  0  0  0  0  0  0  0  0  0
   -0.8675    1.5027    0.0000 C   0  0  0  0  0  0  0  0  0  0  0  0
    0.0000    2.0104    0.0000 C   0  0  0  0  0  0  0  0  0  0  0  0
   -1.7328   -0.0038    0.0000 N   0  0  0  0  0  0  0  0  0  0  0  0
   -1.7313   -1.0038    0.0000 O   0  0  0  0  0  0  0  0  0  0  0  0
   -2.5995    0.4950    0.0000 O   0  0  0  0  0  0  0  0  0  0  0  0
  1  2  1  0  0  0  0
  3  2  1  1  0  0  0
  3  4  1  0  0  0  0
  4  5  1  0  0  0  0
  5  6  2  0  0  0  0
  5  7  1  0  0  0  0
  7  8  1  0  0  0  0
  7  9  1  0  0  0  0
  3 10  1  0  0  0  0
 10 11  1  1  0  0  0
 10 12  1  0  0  0  0
 12 17  2  0  0  0  0
 12 13  1  0  0  0  0
 13 14  2  0  0  0  0
 14 15  1  0  0  0  0
 15 16  2  0  0  0  0
 16 17  1  0  0  0  0
 15 18  1  0  0  0  0
 18 19  2  0  0  0  0
 18 20  2  0  0  0  0
M  END
>  <Name>
Chloramphenicol

>  <CAS #>
56-75-7

>  <human Clearance (mL/min/kg)>
2.4

>  <Primary mechanism (metabolic, biliary or renal)>
metabolic

>  <seqId>
193.0

>  <Code (mechanism and clearance degree index)>
M1

>  < Five M1 and R1 test groups>
M1_5

>  <formamide>
0

>  <prodrug phosphates>
0

>  <VolSurf_V>
620.125

>  <VolSurf_S>
430.809

>  <VolSurf_R>
1.43944

>  <VolSurf_G>
1.35588

>  <VolSurf_IW1>
0.0832837

>  <VolSurf_IW2>
0.179759

>  <VolSurf_IW3>
0.63514

>  <VolSurf_IW4>
1.0372

>  <VolSurf_ID1>
0.0768685

>  <VolSurf_ID2>
0.109672

>  <VolSurf_ID3>
0.137141

>  <VolSurf_ID4>
0.287561

>  <VolSurf_HL1>
4.92342

>  <VolSurf_HL2>
5.60638

>  <VolSurf_A>
5.02065

>  <VolSurf_CP>
0.339756

>  <VolSurf_POL>
27.988

>  <VolSurf_MW>
323.129

>  <VolSurf_FLEX>
1.88103

>  <VolSurf_FLEX_RB>
0.235129

>  <VolSurf_NCC>
0.0

>  <VolSurf_LOGP n-Oct>
0.543

>  <VolSurf_LOGP c-Hex>
-3.136

>  <VolSurf_PSA>
106.71

>  <VolSurf_HSA>
324.099

>  <VolSurf_PSAR>
0.247697

>  <VolSurf_PHSAR>
0.329251

>  <VolSurf_LgD5>
0.542987

>  <VolSurf_LgD6>
0.542869

>  <VolSurf_LgD7>
0.541691

>  <VolSurf_LgD7.5>
0.538875

>  <VolSurf_LgD8>
0.530087

>  <VolSurf_LgD9>
0.428467

>  <VolSurf_LgD10>
-0.0606947

>  <VolSurf_AUS7.4>
1.99977

>  <VolSurf_%FU4>
99.9997

>  <VolSurf_%FU5>
99.997

>  <VolSurf_%FU6>
99.9698

>  <VolSurf_%FU7>
99.699

>  <VolSurf_%FU8>
97.0696

>  <VolSurf_%FU9>
76.8114

>  <VolSurf_%FU10>
24.8823

>  <ID>
115

>  <MOKAID>
116

>  <Clearance Route>
metabolic

>  <PC1>
1.59271

>  <PC2>
1.87903

$$$$
Ciclesonide
  -OEChem-08301611272D

 43 48  0     1  0  0  0  0  0999 V2000
    0.0000    0.0000    0.0000 C   0  0  0  0  0  0  0  0  0  0  0  0
   -0.0000    1.0111    0.0000 C   0  0  0  0  0  0  0  0  0  0  0  0
    0.8679    1.5136    0.0000 C   0  0  0  0  0  0  0  0  0  0  0  0
    1.7358    1.0056    0.0000 C   0  0  2  0  0  0  0  0  0  0  0  0
    2.6012    1.5124    0.0000 C   0  0  1  0  0  0  0  0  0  0  0  0
    2.5967    2.5197    0.0000 C   0  0  2  0  0  0  0  0  0  0  0  0
    3.4743    3.0237    0.0000 C   0  0  0  0  0  0  0  0  0  0  0  0
    4.3442    2.5202    0.0000 C   0  0  2  0  0  0  0  0  0  0  0  0
    5.3053    2.8360    0.0000 C   0  0  2  0  0  0  0  0  0  0  0  0
    5.8990    2.0186    0.0000 C   0  0  1  0  0  0  0  0  0  0  0  0
    5.3110    1.1991    0.0000 C   0  0  0  0  0  0  0  0  0  0  0  0
    4.3477    1.5085    0.0000 C   0  0  2  0  0  0  0  0  0  0  0  0
    3.4759    1.0071    0.0000 C   0  0  2  0  0  0  0  0  0  0  0  0
    3.4748    0.0023    0.0000 C   0  0  0  0  0  0  0  0  0  0  0  0
    2.6038   -0.4989    0.0000 C   0  0  0  0  0  0  0  0  0  0  0  0
    1.7371    0.0000    0.0000 C   0  0  0  0  0  0  0  0  0  0  0  0
    0.8679   -0.4977    0.0000 C   0  0  0  0  0  0  0  0  0  0  0  0
    6.8600    2.3306    0.0000 O   0  0  0  0  0  0  0  0  0  0  0  0
    6.8602    3.3411    0.0000 C   0  0  2  0  0  0  0  0  0  0  0  0
    7.6693    3.9288    0.0000 C   0  0  0  0  0  0  0  0  0  0  0  0
    7.5613    4.9282    0.0000 C   0  0  0  0  0  0  0  0  0  0  0  0
    8.3704    5.5160    0.0000 C   0  0  0  0  0  0  0  0  0  0  0  0
    9.2863    5.1145    0.0000 C   0  0  0  0  0  0  0  0  0  0  0  0
    9.3942    4.1151    0.0000 C   0  0  0  0  0  0  0  0  0  0  0  0
    8.5863    3.5172    0.0000 C   0  0  0  0  0  0  0  0  0  0  0  0
    5.8993    3.6533    0.0000 O   0  0  0  0  0  0  0  0  0  0  0  0
    4.2744    4.2502    0.0000 C   0  0  0  0  0  0  0  0  0  0  0  0
    4.6797    5.1643    0.0000 C   0  0  0  0  0  0  0  0  0  0  0  0
    4.0907    5.9724    0.0000 O   0  0  0  0  0  0  0  0  0  0  0  0
    4.4960    6.8866    0.0000 C   0  0  0  0  0  0  0  0  0  0  0  0
    3.9069    7.6947    0.0000 C   0  0  0  0  0  0  0  0  0  0  0  0
    4.3122    8.6089    0.0000 C   0  0  0  0  0  0  0  0  0  0  0  0
    2.9126    7.5886    0.0000 C   0  0  0  0  0  0  0  0  0  0  0  0
    5.4903    6.9927    0.0000 O   0  0  0  0  0  0  0  0  0  0  0  0
    3.2801    4.1441    0.0000 O   0  0  0  0  0  0  0  0  0  0  0  0
    3.4788    2.0192    0.0000 C   0  0  0  0  0  0  0  0  0  0  0  0
    1.7301    3.0188    0.0000 O   0  0  0  0  0  0  0  0  0  0  0  0
    2.6037    0.5088    0.0000 C   0  0  0  0  0  0  0  0  0  0  0  0
   -0.8653   -0.5013    0.0000 O   0  0  0  0  0  0  0  0  0  0  0  0
    1.7325    2.0078    0.0000 H   0  0  0  0  0  0  0  0  0  0  0  0
    6.4891    1.2113    0.0000 H   0  0  0  0  0  0  0  0  0  0  0  0
    4.4531    0.5141    0.0000 H   0  0  0  0  0  0  0  0  0  0  0  0
    4.3412    0.5059    0.0000 H   0  0  0  0  0  0  0  0  0  0  0  0
  1 17  1  0  0  0  0
  1  2  1  0  0  0  0
  2  3  2  0  0  0  0
  3  4  1  0  0  0  0
  4 16  1  0  0  0  0
  4  5  1  0  0  0  0
  5 13  1  0  0  0  0
  5  6  1  0  0  0  0
  6  7  1  0  0  0  0
  7  8  1  0  0  0  0
  8 12  1  0  0  0  0
  8  9  1  0  0  0  0
  9 26  1  0  0  0  0
  9 10  1  0  0  0  0
 10 11  1  0  0  0  0
 11 12  1  0  0  0  0
 12 13  1  0  0  0  0
 13 14  1  0  0  0  0
 14 15  1  0  0  0  0
 15 16  1  0  0  0  0
 16 17  2  0  0  0  0
 10 18  1  0  0  0  0
 18 19  1  0  0  0  0
 19 20  1  1  0  0  0
 20 25  1  0  0  0  0
 20 21  1  0  0  0  0
 21 22  1  0  0  0  0
 22 23  1  0  0  0  0
 23 24  1  0  0  0  0
 24 25  1  0  0  0  0
 19 26  1  0  0  0  0
  9 27  1  6  0  0  0
 27 28  1  0  0  0  0
 28 29  1  0  0  0  0
 29 30  1  0  0  0  0
 30 31  1  0  0  0  0
 31 32  1  0  0  0  0
 31 33  1  0  0  0  0
 30 34  2  0  0  0  0
 27 35  2  0  0  0  0
  8 36  1  1  0  0  0
  6 37  1  1  0  0  0
  4 38  1  1  0  0  0
  1 39  2  0  0  0  0
  5 40  1  6  0  0  0
 10 41  1  1  0  0  0
 12 42  1  1  0  0  0
 13 43  1  1  0  0  0
M  END
>  <Name>
Ciclesonide

>  <CAS #>
126544-47-6

>  <human Clearance (mL/min/kg)>
33.3

>  <Primary mechanism (metabolic, biliary or renal)>
metabolic

>  <seqId>
206.0

>  <Code (mechanism and clearance degree index)>
M1

>  < Five M1 and R1 test groups>
M1_5

>  <formamide>
0

>  <prodrug phosphates>
0

>  <VolSurf_V>
1153.5

>  <VolSurf_S>
730.554

>  <VolSurf_R>
1.57894

>  <VolSurf_G>
1.60966

>  <VolSurf_IW1>
0.0522408

>  <VolSurf_IW2>
0.136381

>  <VolSurf_IW3>
0.276194

>  <VolSurf_IW4>
0.325271

>  <VolSurf_ID1>
0.0161904

>  <VolSurf_ID2>
0.0708429

>  <VolSurf_ID3>
0.190297

>  <VolSurf_ID4>
0.222242

>  <VolSurf_HL1>
4.59176

>  <VolSurf_HL2>
6.33333

>  <VolSurf_A>
2.88678

>  <VolSurf_CP>
0.325208

>  <VolSurf_POL>
56.6901

>  <VolSurf_MW>
540.687

>  <VolSurf_FLEX>
1.65077

>  <VolSurf_FLEX_RB>
0.15007

>  <VolSurf_NCC>
0.0

>  <VolSurf_LOGP n-Oct>
4.787

>  <VolSurf_LOGP c-Hex>
5.437

>  <VolSurf_PSA>
105.73

>  <VolSurf_HSA>
624.824

>  <VolSurf_PSAR>
0.144726

>  <VolSurf_PHSAR>
0.169216

>  <VolSurf_LgD5>
4.787

>  <VolSurf_LgD6>
4.787

>  <VolSurf_LgD7>
4.787

>  <VolSurf_LgD7.5>
4.787

>  <VolSurf_LgD8>
4.78699

>  <VolSurf_LgD9>
4.78695

>  <VolSurf_LgD10>
4.7865

>  <VolSurf_AUS7.4>
2.0

>  <VolSurf_%FU4>
100.0

>  <VolSurf_%FU5>
100.0

>  <VolSurf_%FU6>
100.0

>  <VolSurf_%FU7>
99.9999

>  <VolSurf_%FU8>
99.9988

>  <VolSurf_%FU9>
99.9884

>  <VolSurf_%FU10>
99.8841

>  <ID>
116

>  <MOKAID>
117

>  <Clearance Route>
metabolic

>  <PC1>
5.219130000000001

>  <PC2>
-3.11743

$$$$
Cidofovir
  -OEChem-08301611272D

 18 18  0     1  0  0  0  0  0999 V2000
    0.8675   -1.4975    0.0000 N   0  0  0  0  0  0  0  0  0  0  0  0
    0.8675   -0.4975    0.0000 C   0  0  0  0  0  0  0  0  0  0  0  0
    1.7350    0.0000    0.0000 N   0  0  0  0  0  0  0  0  0  0  0  0
    1.7350    1.0052    0.0000 C   0  0  0  0  0  0  0  0  0  0  0  0
    2.6025    1.5026    0.0000 O   0  0  0  0  0  0  0  0  0  0  0  0
    0.8675    1.5129    0.0000 N   0  0  0  0  0  0  0  0  0  0  0  0
    0.8675    2.5129    0.0000 C   0  0  0  0  0  0  0  0  0  0  0  0
    0.0015    3.0129    0.0000 C   0  0  1  0  0  0  0  0  0  0  0  0
   -0.8646    2.5129    0.0000 C   0  0  0  0  0  0  0  0  0  0  0  0
   -0.8646    1.5129    0.0000 O   0  0  0  0  0  0  0  0  0  0  0  0
    0.0015    4.0129    0.0000 O   0  0  0  0  0  0  0  0  0  0  0  0
   -0.8646    4.5129    0.0000 C   0  0  0  0  0  0  0  0  0  0  0  0
   -0.8646    5.5129    0.0000 P   0  0  0  0  0  0  0  0  0  0  0  0
   -0.8645    6.5129    0.0000 O   0  0  0  0  0  0  0  0  0  0  0  0
   -1.8646    5.5129    0.0000 O   0  0  0  0  0  0  0  0  0  0  0  0
    0.1354    5.5129    0.0000 O   0  0  0  0  0  0  0  0  0  0  0  0
    0.0000    1.0052    0.0000 C   0  0  0  0  0  0  0  0  0  0  0  0
    0.0000    0.0000    0.0000 C   0  0  0  0  0  0  0  0  0  0  0  0
  1  2  1  0  0  0  0
  2 18  1  0  0  0  0
  2  3  2  0  0  0  0
  3  4  1  0  0  0  0
  4  5  2  0  0  0  0
  4  6  1  0  0  0  0
  6  7  1  0  0  0  0
  8  7  1  1  0  0  0
  8  9  1  0  0  0  0
  9 10  1  0  0  0  0
  8 11  1  0  0  0  0
 11 12  1  0  0  0  0
 12 13  1  0  0  0  0
 13 14  2  0  0  0  0
 13 15  1  0  0  0  0
 13 16  1  0  0  0  0
  6 17  1  0  0  0  0
 17 18  2  0  0  0  0
M  END
>  <Name>
Cidofovir

>  <CAS #>
113852-37-2

>  <human Clearance (mL/min/kg)>
2.5

>  <Primary mechanism (metabolic, biliary or renal)>
renal

>  <seqId>
207.0

>  <Code (mechanism and clearance degree index)>
R1

>  < Five M1 and R1 test groups>
R1_4

>  <formamide>
0

>  <prodrug phosphates>
0

>  <VolSurf_V>
552.25

>  <VolSurf_S>
398.46

>  <VolSurf_R>
1.38596

>  <VolSurf_G>
1.3543

>  <VolSurf_IW1>
0.0964267

>  <VolSurf_IW2>
0.179634

>  <VolSurf_IW3>
0.367777

>  <VolSurf_IW4>
0.692299

>  <VolSurf_ID1>
0.200427

>  <VolSurf_ID2>
0.341713

>  <VolSurf_ID3>
0.463162

>  <VolSurf_ID4>
0.555936

>  <VolSurf_HL1>
12.617

>  <VolSurf_HL2>
9.03125

>  <VolSurf_A>
6.38914

>  <VolSurf_CP>
0.0738756

>  <VolSurf_POL>
26.839

>  <VolSurf_MW>
277.171

>  <VolSurf_FLEX>
2.00359

>  <VolSurf_FLEX_RB>
0.250449

>  <VolSurf_NCC>
1.0

>  <VolSurf_LOGP n-Oct>
-3.199

>  <VolSurf_LOGP c-Hex>
-6.44

>  <VolSurf_PSA>
142.7

>  <VolSurf_HSA>
255.76

>  <VolSurf_PSAR>
0.358129

>  <VolSurf_PHSAR>
0.557945

>  <VolSurf_LgD5>
-6.63175

>  <VolSurf_LgD6>
-7.7555

>  <VolSurf_LgD7>
-8.31933

>  <VolSurf_LgD7.5>
-8.40413

>  <VolSurf_LgD8>
-8.43436

>  <VolSurf_LgD9>
-8.44758

>  <VolSurf_LgD10>
-8.44949

>  <VolSurf_AUS7.4>
0.0

>  <VolSurf_%FU4>
0.0

>  <VolSurf_%FU5>
0.0

>  <VolSurf_%FU6>
0.0

>  <VolSurf_%FU7>
0.0

>  <VolSurf_%FU8>
0.0

>  <VolSurf_%FU9>
0.0

>  <VolSurf_%FU10>
0.0

>  <ID>
117

>  <MOKAID>
118

>  <Clearance Route>
renal

>  <PC1>
-7.1196399999999995

>  <PC2>
5.22525

$$$$
Cilastatin
  -OEChem-08301611272D

 24 24  0     1  0  0  0  0  0999 V2000
   -0.7663    0.6425    0.0000 C   0  0  0  0  0  0  0  0  0  0  0  0
    0.0000    0.0000    0.0000 C   0  0  0  0  0  0  0  0  0  0  0  0
    0.7663    0.6425    0.0000 C   0  0  0  0  0  0  0  0  0  0  0  0
   -0.5000   -0.8682    0.0000 C   0  0  0  0  0  0  0  0  0  0  0  0
    0.5000   -0.8682    0.0000 C   0  0  2  0  0  0  0  0  0  0  0  0
    1.3658   -1.3687    0.0000 C   0  0  0  0  0  0  0  0  0  0  0  0
    1.3652   -2.3687    0.0000 O   0  0  0  0  0  0  0  0  0  0  0  0
    2.2321   -0.8691    0.0000 N   0  0  0  0  0  0  0  0  0  0  0  0
    3.0978   -1.3696    0.0000 C   0  0  0  0  0  0  0  0  0  0  0  0
    3.0973   -2.3696    0.0000 C   0  0  0  0  0  0  0  0  0  0  0  0
    2.2310   -2.8691    0.0000 C   0  0  0  0  0  0  0  0  0  0  0  0
    2.2304   -3.8691    0.0000 C   0  0  0  0  0  0  0  0  0  0  0  0
    1.3641   -4.3687    0.0000 C   0  0  0  0  0  0  0  0  0  0  0  0
    1.3636   -5.3687    0.0000 C   0  0  0  0  0  0  0  0  0  0  0  0
    0.4973   -5.8682    0.0000 S   0  0  0  0  0  0  0  0  0  0  0  0
    0.4967   -6.8682    0.0000 C   0  0  0  0  0  0  0  0  0  0  0  0
   -0.3696   -7.3677    0.0000 C   0  0  2  0  0  0  0  0  0  0  0  0
   -1.2353   -6.8673    0.0000 N   0  0  0  0  0  0  0  0  0  0  0  0
   -0.3701   -8.3677    0.0000 C   0  0  0  0  0  0  0  0  0  0  0  0
    0.4957   -8.8682    0.0000 O   0  0  0  0  0  0  0  0  0  0  0  0
   -1.2364   -8.8673    0.0000 O   0  0  0  0  0  0  0  0  0  0  0  0
    3.9641   -0.8701    0.0000 C   0  0  0  0  0  0  0  0  0  0  0  0
    3.9646    0.1299    0.0000 O   0  0  0  0  0  0  0  0  0  0  0  0
    4.8299   -1.3705    0.0000 O   0  0  0  0  0  0  0  0  0  0  0  0
  1  2  1  0  0  0  0
  2  5  1  0  0  0  0
  2  3  1  0  0  0  0
  2  4  1  0  0  0  0
  4  5  1  0  0  0  0
  5  6  1  1  0  0  0
  6  7  2  0  0  0  0
  6  8  1  0  0  0  0
  8  9  1  0  0  0  0
  9 10  2  0  0  0  0
 10 11  1  0  0  0  0
 11 12  1  0  0  0  0
 12 13  1  0  0  0  0
 13 14  1  0  0  0  0
 14 15  1  0  0  0  0
 15 16  1  0  0  0  0
 16 17  1  0  0  0  0
 17 18  1  1  0  0  0
 17 19  1  0  0  0  0
 19 20  2  0  0  0  0
 19 21  1  0  0  0  0
  9 22  1  0  0  0  0
 22 23  2  0  0  0  0
 22 24  1  0  0  0  0
M  END
>  <Name>
Cilastatin

>  <CAS #>
82009-34-5

>  <human Clearance (mL/min/kg)>
2.3

>  <Primary mechanism (metabolic, biliary or renal)>
renal

>  <seqId>
208.0

>  <Code (mechanism and clearance degree index)>
R1

>  < Five M1 and R1 test groups>
R1_3

>  <formamide>
0

>  <prodrug phosphates>
0

>  <VolSurf_V>
816.125

>  <VolSurf_S>
581.427

>  <VolSurf_R>
1.40366

>  <VolSurf_G>
1.61532

>  <VolSurf_IW1>
0.097141

>  <VolSurf_IW2>
0.201746

>  <VolSurf_IW3>
0.400599

>  <VolSurf_IW4>
0.50726

>  <VolSurf_ID1>
0.0553815

>  <VolSurf_ID2>
0.0884707

>  <VolSurf_ID3>
0.173606

>  <VolSurf_ID4>
0.0

>  <VolSurf_HL1>
13.2636

>  <VolSurf_HL2>
25.6053

>  <VolSurf_A>
5.13051

>  <VolSurf_CP>
0.13105

>  <VolSurf_POL>
35.746

>  <VolSurf_MW>
357.445

>  <VolSurf_FLEX>
3.75741

>  <VolSurf_FLEX_RB>
0.268387

>  <VolSurf_NCC>
3.0

>  <VolSurf_LOGP n-Oct>
-0.0679999

>  <VolSurf_LOGP c-Hex>
-3.272

>  <VolSurf_PSA>
167.72

>  <VolSurf_HSA>
413.707

>  <VolSurf_PSAR>
0.288463

>  <VolSurf_PHSAR>
0.405408

>  <VolSurf_LgD5>
-2.84167

>  <VolSurf_LgD6>
-3.76522

>  <VolSurf_LgD7>
-4.45188

>  <VolSurf_LgD7.5>
-4.60722

>  <VolSurf_LgD8>
-4.68153

>  <VolSurf_LgD9>
-4.851

>  <VolSurf_LgD10>
-5.40484

>  <VolSurf_AUS7.4>
0.0

>  <VolSurf_%FU4>
0.0

>  <VolSurf_%FU5>
0.0

>  <VolSurf_%FU6>
0.0

>  <VolSurf_%FU7>
0.0

>  <VolSurf_%FU8>
0.0

>  <VolSurf_%FU9>
0.0

>  <VolSurf_%FU10>
0.0

>  <ID>
118

>  <MOKAID>
119

>  <Clearance Route>
renal

>  <PC1>
-3.78176

>  <PC2>
0.186621

$$$$
Cilazaprilat
  -OEChem-08301611272D

 28 30  0     1  0  0  0  0  0999 V2000
   -3.6308   -2.3298    0.0000 C   0  0  0  0  0  0  0  0  0  0  0  0
   -4.2506   -1.5450    0.0000 C   0  0  0  0  0  0  0  0  0  0  0  0
   -3.8862   -0.6137    0.0000 C   0  0  0  0  0  0  0  0  0  0  0  0
   -2.8919   -0.4657    0.0000 C   0  0  0  0  0  0  0  0  0  0  0  0
   -2.2621   -1.2491    0.0000 C   0  0  0  0  0  0  0  0  0  0  0  0
   -2.6365   -2.1818    0.0000 C   0  0  0  0  0  0  0  0  0  0  0  0
   -2.5276    0.4655    0.0000 C   0  0  0  0  0  0  0  0  0  0  0  0
   -1.5389    0.6157    0.0000 C   0  0  0  0  0  0  0  0  0  0  0  0
   -1.1746    1.5469    0.0000 C   0  0  2  0  0  0  0  0  0  0  0  0
   -0.1859    1.6971    0.0000 N   0  0  0  0  0  0  0  0  0  0  0  0
    0.4384    0.9159    0.0000 C   0  0  2  0  0  0  0  0  0  0  0  0
    1.4290    1.1418    0.0000 C   0  0  0  0  0  0  0  0  0  0  0  0
    2.2220    0.5029    0.0000 N   0  0  0  0  0  0  0  0  0  0  0  0
    3.0895    1.0060    0.0000 C   0  0  1  0  0  0  0  0  0  0  0  0
    3.9596    0.4979    0.0000 C   0  0  0  0  0  0  0  0  0  0  0  0
    3.9567   -0.5076    0.0000 C   0  0  0  0  0  0  0  0  0  0  0  0
    3.0837   -1.0052    0.0000 C   0  0  0  0  0  0  0  0  0  0  0  0
    2.2192   -0.5026    0.0000 N   0  0  2  0  0  0  0  0  0  0  0  0
    1.4241   -1.1362    0.0000 C   0  0  0  0  0  0  0  0  0  0  0  0
    0.4360   -0.9143    0.0000 C   0  0  0  0  0  0  0  0  0  0  0  0
    0.0000    0.0000    0.0000 C   0  0  0  0  0  0  0  0  0  0  0  0
    3.0921    2.7560    0.0000 C   0  0  0  0  0  0  0  0  0  0  0  0
    2.2268    3.2573    0.0000 O   0  0  0  0  0  0  0  0  0  0  0  0
    3.9589    3.2547    0.0000 O   0  0  0  0  0  0  0  0  0  0  0  0
    1.6540    2.1161    0.0000 O   0  0  0  0  0  0  0  0  0  0  0  0
   -1.7990    2.3281    0.0000 C   0  0  0  0  0  0  0  0  0  0  0  0
   -1.4346    3.2594    0.0000 O   0  0  0  0  0  0  0  0  0  0  0  0
   -2.7876    2.1780    0.0000 O   0  0  0  0  0  0  0  0  0  0  0  0
  1  6  2  0  0  0  0
  1  2  1  0  0  0  0
  2  3  2  0  0  0  0
  3  4  1  0  0  0  0
  4  5  2  0  0  0  0
  5  6  1  0  0  0  0
  4  7  1  0  0  0  0
  7  8  1  0  0  0  0
  9  8  1  1  0  0  0
  9 10  1  0  0  0  0
 11 10  1  6  0  0  0
 11 21  1  0  0  0  0
 11 12  1  0  0  0  0
 12 13  1  0  0  0  0
 13 18  1  0  0  0  0
 13 14  1  0  0  0  0
 14 15  1  0  0  0  0
 15 16  1  0  0  0  0
 16 17  1  0  0  0  0
 18 17  1  6  0  0  0
 18 19  1  0  0  0  0
 19 20  1  0  0  0  0
 20 21  1  0  0  0  0
 14 22  1  6  0  0  0
 22 23  1  0  0  0  0
 22 24  2  0  0  0  0
 12 25  2  0  0  0  0
  9 26  1  0  0  0  0
 26 27  1  0  0  0  0
 26 28  2  0  0  0  0
M  END
>  <Name>
Cilazaprilat

>  <CAS #>
90139-06-3

>  <human Clearance (mL/min/kg)>
2.1

>  <Primary mechanism (metabolic, biliary or renal)>
renal

>  <seqId>
209.0

>  <Code (mechanism and clearance degree index)>
R1

>  < Five M1 and R1 test groups>
R1_3

>  <formamide>
0

>  <prodrug phosphates>
0

>  <VolSurf_V>
834.125

>  <VolSurf_S>
539.545

>  <VolSurf_R>
1.54598

>  <VolSurf_G>
1.41281

>  <VolSurf_IW1>
0.118972

>  <VolSurf_IW2>
0.286297

>  <VolSurf_IW3>
0.530034

>  <VolSurf_IW4>
0.684197

>  <VolSurf_ID1>
0.0655533

>  <VolSurf_ID2>
0.157218

>  <VolSurf_ID3>
0.300212

>  <VolSurf_ID4>
0.441951

>  <VolSurf_HL1>
7.55189

>  <VolSurf_HL2>
10.8913

>  <VolSurf_A>
7.01543

>  <VolSurf_CP>
0.138089

>  <VolSurf_POL>
41.705

>  <VolSurf_MW>
388.437

>  <VolSurf_FLEX>
2.294

>  <VolSurf_FLEX_RB>
0.327714

>  <VolSurf_NCC>
3.0

>  <VolSurf_LOGP n-Oct>
0.354

>  <VolSurf_LOGP c-Hex>
-2.644

>  <VolSurf_PSA>
139.14

>  <VolSurf_HSA>
400.405

>  <VolSurf_PSAR>
0.257884

>  <VolSurf_PHSAR>
0.347498

>  <VolSurf_LgD5>
-4.69393

>  <VolSurf_LgD6>
-5.27898

>  <VolSurf_LgD7>
-5.41011

>  <VolSurf_LgD7.5>
-5.39013

>  <VolSurf_LgD8>
-5.31344

>  <VolSurf_LgD9>
-5.03587

>  <VolSurf_LgD10>
-4.91466

>  <VolSurf_AUS7.4>
0.0

>  <VolSurf_%FU4>
0.0

>  <VolSurf_%FU5>
0.0

>  <VolSurf_%FU6>
0.0

>  <VolSurf_%FU7>
0.0

>  <VolSurf_%FU8>
0.0

>  <VolSurf_%FU9>
0.0

>  <VolSurf_%FU10>
0.0

>  <ID>
119

>  <MOKAID>
120

>  <Clearance Route>
renal

>  <PC1>
-3.69411

>  <PC2>
0.8839030000000001

$$$$
Cilengitide
  -OEChem-08301611272D

 42 43  0     1  0  0  0  0  0999 V2000
    2.2057    1.6091    0.0000 N   0  0  0  0  0  0  0  0  0  0  0  0
    3.1537    1.9275    0.0000 C   0  0  0  0  0  0  0  0  0  0  0  0
    3.0283    1.0029    0.0000 C   0  0  0  0  0  0  0  0  0  0  0  0
    2.7158    0.0361    0.0000 C   0  0  2  0  0  0  0  0  0  0  0  0
    1.6823    0.0000    0.0000 N   0  0  0  0  0  0  0  0  0  0  0  0
    1.3535   -0.9609    0.0000 C   0  0  0  0  0  0  0  0  0  0  0  0
    0.3296   -0.9639    0.0000 C   0  0  1  0  0  0  0  0  0  0  0  0
    0.0000    0.0000    0.0000 N   0  0  0  0  0  0  0  0  0  0  0  0
   -1.0030    0.0366    0.0000 C   0  0  0  0  0  0  0  0  0  0  0  0
   -1.2995    0.9957    0.0000 C   0  0  0  0  0  0  0  0  0  0  0  0
   -0.4978    1.5953    0.0000 N   0  0  0  0  0  0  0  0  0  0  0  0
   -0.7993    2.5492    0.0000 C   0  0  0  0  0  0  0  0  0  0  0  0
   -0.0026    3.1537    0.0000 C   0  0  2  0  0  0  0  0  0  0  0  0
   -0.0334    4.1532    0.0000 C   0  0  0  0  0  0  0  0  0  0  0  0
   -0.9144    4.6263    0.0000 C   0  0  0  0  0  0  0  0  0  0  0  0
   -0.9453    5.6258    0.0000 C   0  0  0  0  0  0  0  0  0  0  0  0
   -1.8263    6.0989    0.0000 N   0  0  0  0  0  0  0  0  0  0  0  0
   -1.8571    7.0984    0.0000 C   0  0  0  0  0  0  0  0  0  0  0  0
   -2.7381    7.5715    0.0000 N   0  0  0  0  0  0  0  0  0  0  0  0
   -1.0069    7.6249    0.0000 N   0  0  0  0  0  0  0  0  0  0  0  0
    0.8353    2.5958    0.0000 N   0  0  0  0  0  0  0  0  0  0  0  0
    1.6485    3.1893    0.0000 C   0  0  0  0  0  0  0  0  0  0  0  0
    2.4936    2.5820    0.0000 C   0  0  2  0  0  0  0  0  0  0  0  0
    4.1492    3.1491    0.0000 C   0  0  0  0  0  0  0  0  0  0  0  0
    4.3416    4.1304    0.0000 C   0  0  0  0  0  0  0  0  0  0  0  0
    4.9028    2.4918    0.0000 C   0  0  0  0  0  0  0  0  0  0  0  0
    1.6448    4.1893    0.0000 O   0  0  0  0  0  0  0  0  0  0  0  0
   -1.7523    2.8522    0.0000 O   0  0  0  0  0  0  0  0  0  0  0  0
   -1.6111   -0.7572    0.0000 O   0  0  0  0  0  0  0  0  0  0  0  0
   -0.2508   -1.7782    0.0000 C   0  0  0  0  0  0  0  0  0  0  0  0
    0.1643   -2.6880    0.0000 C   0  0  0  0  0  0  0  0  0  0  0  0
    1.1597   -2.7835    0.0000 O   0  0  0  0  0  0  0  0  0  0  0  0
   -0.4161   -3.5024    0.0000 O   0  0  0  0  0  0  0  0  0  0  0  0
    1.9362   -1.7736    0.0000 O   0  0  0  0  0  0  0  0  0  0  0  0
    3.3182   -0.7621    0.0000 C   0  0  0  0  0  0  0  0  0  0  0  0
    4.3107   -0.6394    0.0000 C   0  0  0  0  0  0  0  0  0  0  0  0
    4.7000    0.2873    0.0000 C   0  0  0  0  0  0  0  0  0  0  0  0
    5.6925    0.4100    0.0000 C   0  0  0  0  0  0  0  0  0  0  0  0
    6.2996   -0.3847    0.0000 C   0  0  0  0  0  0  0  0  0  0  0  0
    5.9103   -1.3114    0.0000 C   0  0  0  0  0  0  0  0  0  0  0  0
    4.9138   -1.4435    0.0000 C   0  0  0  0  0  0  0  0  0  0  0  0
    3.9802    1.3094    0.0000 O   0  0  0  0  0  0  0  0  0  0  0  0
  1 23  1  0  0  0  0
  1  2  1  0  0  0  0
  1  3  1  0  0  0  0
  3  4  1  0  0  0  0
  4  5  1  0  0  0  0
  5  6  1  0  0  0  0
  6  7  1  0  0  0  0
  7  8  1  0  0  0  0
  8  9  1  0  0  0  0
  9 10  1  0  0  0  0
 10 11  1  0  0  0  0
 11 12  1  0  0  0  0
 12 13  1  0  0  0  0
 13 14  1  6  0  0  0
 14 15  1  0  0  0  0
 15 16  1  0  0  0  0
 16 17  1  0  0  0  0
 17 18  1  0  0  0  0
 18 19  1  0  0  0  0
 18 20  2  3  0  0  0
 13 21  1  0  0  0  0
 21 22  1  0  0  0  0
 22 23  1  0  0  0  0
 23 24  1  6  0  0  0
 24 25  1  0  0  0  0
 24 26  1  0  0  0  0
 22 27  2  0  0  0  0
 12 28  2  0  0  0  0
  9 29  2  0  0  0  0
  7 30  1  6  0  0  0
 30 31  1  0  0  0  0
 31 32  2  0  0  0  0
 31 33  1  0  0  0  0
  6 34  2  0  0  0  0
  4 35  1  1  0  0  0
 35 36  1  0  0  0  0
 36 41  2  0  0  0  0
 36 37  1  0  0  0  0
 37 38  2  0  0  0  0
 38 39  1  0  0  0  0
 39 40  2  0  0  0  0
 40 41  1  0  0  0  0
  3 42  2  0  0  0  0
M  END
>  <Name>
Cilengitide

>  <CAS #>
188968-51-6

>  <human Clearance (mL/min/kg)>
1.18

>  <Primary mechanism (metabolic, biliary or renal)>
renal

>  <seqId>
210.0

>  <Code (mechanism and clearance degree index)>
R1

>  < Five M1 and R1 test groups>
R1_1

>  <formamide>
0

>  <prodrug phosphates>
0

>  <VolSurf_V>
1196.5

>  <VolSurf_S>
751.629

>  <VolSurf_R>
1.59188

>  <VolSurf_G>
1.61944

>  <VolSurf_IW1>
0.050847

>  <VolSurf_IW2>
0.120887

>  <VolSurf_IW3>
0.257047

>  <VolSurf_IW4>
0.398038

>  <VolSurf_ID1>
0.0440876

>  <VolSurf_ID2>
0.0373409

>  <VolSurf_ID3>
0.0401087

>  <VolSurf_ID4>
0.217231

>  <VolSurf_HL1>
5.41878

>  <VolSurf_HL2>
6.51282

>  <VolSurf_A>
3.36495

>  <VolSurf_CP>
0.63294

>  <VolSurf_POL>
58.5541

>  <VolSurf_MW>
588.656

>  <VolSurf_FLEX>
2.22399

>  <VolSurf_FLEX_RB>
0.158856

>  <VolSurf_NCC>
2.0

>  <VolSurf_LOGP n-Oct>
-1.417

>  <VolSurf_LOGP c-Hex>
-9.0

>  <VolSurf_PSA>
246.67

>  <VolSurf_HSA>
504.959

>  <VolSurf_PSAR>
0.328181

>  <VolSurf_PHSAR>
0.488495

>  <VolSurf_LgD5>
-3.73945

>  <VolSurf_LgD6>
-3.71931

>  <VolSurf_LgD7>
-3.7173

>  <VolSurf_LgD7.5>
-3.7173

>  <VolSurf_LgD8>
-3.71774

>  <VolSurf_LgD9>
-3.72414

>  <VolSurf_LgD10>
-3.78276

>  <VolSurf_AUS7.4>
0.0

>  <VolSurf_%FU4>
0.0

>  <VolSurf_%FU5>
0.0

>  <VolSurf_%FU6>
0.0

>  <VolSurf_%FU7>
0.0

>  <VolSurf_%FU8>
0.0

>  <VolSurf_%FU9>
0.0

>  <VolSurf_%FU10>
0.0

>  <ID>
120

>  <MOKAID>
121

>  <Clearance Route>
possible billary

>  <PC1>
-4.51314

>  <PC2>
-2.72077

$$$$
Cimetidine
  -OEChem-08301611272D

 17 17  0     0  0  0  0  0  0999 V2000
   -4.5664   -0.3848    0.0000 C   0  0  0  0  0  0  0  0  0  0  0  0
   -5.1552   -1.1931    0.0000 N   0  0  0  0  0  0  0  0  0  0  0  0
   -4.7497   -2.1072    0.0000 C   0  0  0  0  0  0  0  0  0  0  0  0
   -3.7553   -2.2130    0.0000 N   0  0  0  0  0  0  0  0  0  0  0  0
   -3.1665   -1.4048    0.0000 C   0  0  0  0  0  0  0  0  0  0  0  0
   -2.1721   -1.5106    0.0000 C   0  0  0  0  0  0  0  0  0  0  0  0
   -1.5832   -0.7024    0.0000 S   0  0  0  0  0  0  0  0  0  0  0  0
   -0.5889   -0.8082    0.0000 C   0  0  0  0  0  0  0  0  0  0  0  0
    0.0000    0.0000    0.0000 C   0  0  0  0  0  0  0  0  0  0  0  0
    1.0014   -0.0000    0.0000 N   0  0  0  0  0  0  0  0  0  0  0  0
    1.3131    0.9519    0.0000 C   0  0  0  0  0  0  0  0  0  0  0  0
    0.5007    1.5426    0.0000 N   0  0  0  0  0  0  0  0  0  0  0  0
   -0.3065    0.9519    0.0000 C   0  0  0  0  0  0  0  0  0  0  0  0
   -1.2577    1.2606    0.0000 C   0  0  0  0  0  0  0  0  0  0  0  0
   -5.3386   -2.9154    0.0000 N   0  0  0  0  0  0  0  0  0  0  0  0
   -4.9331   -3.8295    0.0000 C   0  0  0  0  0  0  0  0  0  0  0  0
   -4.5275   -4.7436    0.0000 N   0  0  0  0  0  0  0  0  0  0  0  0
  1  2  1  0  0  0  0
  2  3  1  0  0  0  0
  3  4  2  0  0  0  0
  4  5  1  0  0  0  0
  5  6  1  0  0  0  0
  6  7  1  0  0  0  0
  7  8  1  0  0  0  0
  8  9  1  0  0  0  0
  9 13  2  0  0  0  0
  9 10  1  0  0  0  0
 10 11  2  0  0  0  0
 11 12  1  0  0  0  0
 12 13  1  0  0  0  0
 13 14  1  0  0  0  0
  3 15  1  0  0  0  0
 15 16  1  0  0  0  0
 16 17  3  0  0  0  0
M  END
>  <Name>
Cimetidine

>  <CAS #>
51481-61-9

>  <human Clearance (mL/min/kg)>
8.1

>  <Primary mechanism (metabolic, biliary or renal)>
renal

>  <seqId>
212.0

>  <Code (mechanism and clearance degree index)>
R1

>  < Five M1 and R1 test groups>
R1_4

>  <formamide>
0

>  <prodrug phosphates>
0

>  <VolSurf_V>
601.5

>  <VolSurf_S>
428.89

>  <VolSurf_R>
1.40246

>  <VolSurf_G>
1.38853

>  <VolSurf_IW1>
0.0758916

>  <VolSurf_IW2>
0.224458

>  <VolSurf_IW3>
0.70426

>  <VolSurf_IW4>
0.966354

>  <VolSurf_ID1>
0.0172377

>  <VolSurf_ID2>
0.0350271

>  <VolSurf_ID3>
0.0364757

>  <VolSurf_ID4>
0.0338144

>  <VolSurf_HL1>
1.02847

>  <VolSurf_HL2>
0.615385

>  <VolSurf_A>
3.1242

>  <VolSurf_CP>
5.28512

>  <VolSurf_POL>
27.174

>  <VolSurf_MW>
252.339

>  <VolSurf_FLEX>
2.26159

>  <VolSurf_FLEX_RB>
0.226159

>  <VolSurf_NCC>
0.0

>  <VolSurf_LOGP n-Oct>
-0.234

>  <VolSurf_LOGP c-Hex>
-0.574

>  <VolSurf_PSA>
96.91

>  <VolSurf_HSA>
331.98

>  <VolSurf_PSAR>
0.225956

>  <VolSurf_PHSAR>
0.291916

>  <VolSurf_LgD5>
-1.74011

>  <VolSurf_LgD6>
-0.850451

>  <VolSurf_LgD7>
-0.352515

>  <VolSurf_LgD7.5>
-0.275088

>  <VolSurf_LgD8>
-0.247422

>  <VolSurf_LgD9>
-0.235405

>  <VolSurf_LgD10>
-0.234581

>  <VolSurf_AUS7.4>
1.95227

>  <VolSurf_%FU4>
0.317502

>  <VolSurf_%FU5>
3.08744

>  <VolSurf_%FU6>
24.1612

>  <VolSurf_%FU7>
76.11

>  <VolSurf_%FU8>
96.9557

>  <VolSurf_%FU9>
99.6769

>  <VolSurf_%FU10>
99.8663

>  <ID>
121

>  <MOKAID>
122

>  <Clearance Route>
metabolic

>  <PC1>
1.18377

>  <PC2>
1.00994

$$$$
Ciprofloxacin
  -OEChem-08301611272D

 24 27  0     0  0  0  0  0  0999 V2000
    4.3381   -1.5121    0.0000 O   0  0  0  0  0  0  0  0  0  0  0  0
    4.3437   -0.5122    0.0000 C   0  0  0  0  0  0  0  0  0  0  0  0
    5.2125   -0.0170    0.0000 O   0  0  0  0  0  0  0  0  0  0  0  0
    3.4805   -0.0073    0.0000 C   0  0  0  0  0  0  0  0  0  0  0  0
    3.4848    1.0014    0.0000 C   0  0  0  0  0  0  0  0  0  0  0  0
    2.6125    1.5125    0.0000 N   0  0  0  0  0  0  0  0  0  0  0  0
    2.6154    2.5125    0.0000 C   0  0  0  0  0  0  0  0  0  0  0  0
    3.1179    3.3792    0.0000 C   0  0  0  0  0  0  0  0  0  0  0  0
    2.1179    3.3821    0.0000 C   0  0  0  0  0  0  0  0  0  0  0  0
    1.7414    1.0089    0.0000 C   0  0  0  0  0  0  0  0  0  0  0  0
    0.8707    1.5185    0.0000 C   0  0  0  0  0  0  0  0  0  0  0  0
    0.0000    1.0089    0.0000 C   0  0  0  0  0  0  0  0  0  0  0  0
   -0.8675    1.5063    0.0000 N   0  0  0  0  0  0  0  0  0  0  0  0
   -0.8763    2.5113    0.0000 C   0  0  0  0  0  0  0  0  0  0  0  0
   -1.7482    3.0112    0.0000 C   0  0  0  0  0  0  0  0  0  0  0  0
   -2.6114    2.5063    0.0000 N   0  0  0  0  0  0  0  0  0  0  0  0
   -2.6112    1.5063    0.0000 C   0  0  0  0  0  0  0  0  0  0  0  0
   -1.7392    1.0063    0.0000 C   0  0  0  0  0  0  0  0  0  0  0  0
    0.0000    0.0000    0.0000 C   0  0  0  0  0  0  0  0  0  0  0  0
   -0.8653   -0.5013    0.0000 F   0  0  0  0  0  0  0  0  0  0  0  0
    0.8707   -0.4993    0.0000 C   0  0  0  0  0  0  0  0  0  0  0  0
    1.7371    0.0000    0.0000 C   0  0  0  0  0  0  0  0  0  0  0  0
    2.6039   -0.5053    0.0000 C   0  0  0  0  0  0  0  0  0  0  0  0
    2.5983   -1.5053    0.0000 O   0  0  0  0  0  0  0  0  0  0  0  0
  1  2  1  0  0  0  0
  2  3  2  0  0  0  0
  2  4  1  0  0  0  0
  4 23  1  0  0  0  0
  4  5  2  0  0  0  0
  5  6  1  0  0  0  0
  6  7  1  0  0  0  0
  7  9  1  0  0  0  0
  7  8  1  0  0  0  0
  8  9  1  0  0  0  0
  6 10  1  0  0  0  0
 10 22  2  0  0  0  0
 10 11  1  0  0  0  0
 11 12  2  0  0  0  0
 12 13  1  0  0  0  0
 13 18  1  0  0  0  0
 13 14  1  0  0  0  0
 14 15  1  0  0  0  0
 15 16  1  0  0  0  0
 16 17  1  0  0  0  0
 17 18  1  0  0  0  0
 12 19  1  0  0  0  0
 19 20  1  0  0  0  0
 19 21  2  0  0  0  0
 21 22  1  0  0  0  0
 22 23  1  0  0  0  0
 23 24  2  0  0  0  0
M  END
>  <Name>
Ciprofloxacin

>  <CAS #>
85721-33-1

>  <human Clearance (mL/min/kg)>
8.3

>  <Primary mechanism (metabolic, biliary or renal)>
Mostly passive renal but with considerable tubular secretion.

>  <seqId>
215.0

>  <Code (mechanism and clearance degree index)>
R1

>  < Five M1 and R1 test groups>
R1_1

>  <formamide>
0

>  <prodrug phosphates>
0

>  <VolSurf_V>
691.75

>  <VolSurf_S>
464.553

>  <VolSurf_R>
1.48907

>  <VolSurf_G>
1.36106

>  <VolSurf_IW1>
0.120975

>  <VolSurf_IW2>
0.292951

>  <VolSurf_IW3>
0.779495

>  <VolSurf_IW4>
1.59861

>  <VolSurf_ID1>
0.0499751

>  <VolSurf_ID2>
0.0677581

>  <VolSurf_ID3>
0.0664973

>  <VolSurf_ID4>
0.0797414

>  <VolSurf_HL1>
3.22419

>  <VolSurf_HL2>
2.30734

>  <VolSurf_A>
4.8929

>  <VolSurf_CP>
1.02365

>  <VolSurf_POL>
34.253

>  <VolSurf_MW>
331.341

>  <VolSurf_FLEX>
0.47016

>  <VolSurf_FLEX_RB>
0.15672

>  <VolSurf_NCC>
2.0

>  <VolSurf_LOGP n-Oct>
1.84

>  <VolSurf_LOGP c-Hex>
-1.999

>  <VolSurf_PSA>
98.19

>  <VolSurf_HSA>
366.363

>  <VolSurf_PSAR>
0.211364

>  <VolSurf_PHSAR>
0.268013

>  <VolSurf_LgD5>
-1.36127

>  <VolSurf_LgD6>
-0.90127

>  <VolSurf_LgD7>
-0.646924

>  <VolSurf_LgD7.5>
-0.631583

>  <VolSurf_LgD8>
-0.667349

>  <VolSurf_LgD9>
-0.918069

>  <VolSurf_LgD10>
-1.11812

>  <VolSurf_AUS7.4>
0.0

>  <VolSurf_%FU4>
0.0

>  <VolSurf_%FU5>
0.0

>  <VolSurf_%FU6>
0.0

>  <VolSurf_%FU7>
0.0

>  <VolSurf_%FU8>
0.0

>  <VolSurf_%FU9>
0.0

>  <VolSurf_%FU10>
0.0

>  <ID>
122

>  <MOKAID>
123

>  <Clearance Route>
uncertain

>  <PC1>
-0.6156189999999999

>  <PC2>
0.738244

$$$$
Cisapride
  -OEChem-08301611272D

 32 34  0     1  0  0  0  0  0999 V2000
    0.8660   -2.5000    0.0000 C   0  0  0  0  0  0  0  0  0  0  0  0
   -0.0060   -3.0000    0.0000 C   0  0  0  0  0  0  0  0  0  0  0  0
   -0.0060   -4.0001    0.0000 C   0  0  0  0  0  0  0  0  0  0  0  0
    0.8571   -4.5051    0.0000 C   0  0  0  0  0  0  0  0  0  0  0  0
    0.8527   -5.5051    0.0000 N   0  0  0  0  0  0  0  0  0  0  0  0
    1.7291   -4.0051    0.0000 C   0  0  0  0  0  0  0  0  0  0  0  0
    1.7380   -3.0000    0.0000 C   0  0  0  0  0  0  0  0  0  0  0  0
    2.5921   -4.5102    0.0000 Cl  0  0  0  0  0  0  0  0  0  0  0  0
   -0.8713   -2.4987    0.0000 O   0  0  0  0  0  0  0  0  0  0  0  0
   -1.7380   -2.9974    0.0000 C   0  0  0  0  0  0  0  0  0  0  0  0
    0.8660   -1.5000    0.0000 C   0  0  0  0  0  0  0  0  0  0  0  0
    0.0000   -1.0000    0.0000 N   0  0  0  0  0  0  0  0  0  0  0  0
    0.0000    0.0000    0.0000 C   0  0  2  0  0  0  0  0  0  0  0  0
    0.8675    0.4975    0.0000 C   0  0  1  0  0  0  0  0  0  0  0  0
    0.8675    1.5027    0.0000 C   0  0  0  0  0  0  0  0  0  0  0  0
   -0.0000    2.0104    0.0000 N   0  0  1  0  0  0  0  0  0  0  0  0
   -0.0000    3.0104    0.0000 C   0  0  0  0  0  0  0  0  0  0  0  0
   -0.8660    3.5104    0.0000 C   0  0  0  0  0  0  0  0  0  0  0  0
   -0.8660    4.5104    0.0000 C   0  0  0  0  0  0  0  0  0  0  0  0
   -1.7321    5.0104    0.0000 O   0  0  0  0  0  0  0  0  0  0  0  0
   -1.7321    6.0104    0.0000 C   0  0  0  0  0  0  0  0  0  0  0  0
   -2.6041    6.5104    0.0000 C   0  0  0  0  0  0  0  0  0  0  0  0
   -2.6041    7.5105    0.0000 C   0  0  0  0  0  0  0  0  0  0  0  0
   -1.7410    8.0155    0.0000 C   0  0  0  0  0  0  0  0  0  0  0  0
   -1.7454    9.0155    0.0000 F   0  0  0  0  0  0  0  0  0  0  0  0
   -0.8690    7.5155    0.0000 C   0  0  0  0  0  0  0  0  0  0  0  0
   -0.8601    6.5104    0.0000 C   0  0  0  0  0  0  0  0  0  0  0  0
   -0.8675    1.5027    0.0000 C   0  0  0  0  0  0  0  0  0  0  0  0
   -0.8675    0.4975    0.0000 C   0  0  0  0  0  0  0  0  0  0  0  0
    1.7328   -0.0038    0.0000 O   0  0  0  0  0  0  0  0  0  0  0  0
    2.5995    0.4950    0.0000 C   0  0  0  0  0  0  0  0  0  0  0  0
    1.7321   -1.0000    0.0000 O   0  0  0  0  0  0  0  0  0  0  0  0
  1  7  2  0  0  0  0
  1  2  1  0  0  0  0
  2  3  2  0  0  0  0
  3  4  1  0  0  0  0
  4  5  1  0  0  0  0
  4  6  2  0  0  0  0
  6  7  1  0  0  0  0
  6  8  1  0  0  0  0
  2  9  1  0  0  0  0
  9 10  1  0  0  0  0
  1 11  1  0  0  0  0
 11 12  1  0  0  0  0
 13 12  1  1  0  0  0
 13 29  1  0  0  0  0
 13 14  1  0  0  0  0
 14 15  1  0  0  0  0
 15 16  1  0  0  0  0
 16 17  1  6  0  0  0
 17 18  1  0  0  0  0
 18 19  1  0  0  0  0
 19 20  1  0  0  0  0
 20 21  1  0  0  0  0
 21 27  2  0  0  0  0
 21 22  1  0  0  0  0
 22 23  2  0  0  0  0
 23 24  1  0  0  0  0
 24 25  1  0  0  0  0
 24 26  2  0  0  0  0
 26 27  1  0  0  0  0
 16 28  1  0  0  0  0
 28 29  1  0  0  0  0
 14 30  1  1  0  0  0
 30 31  1  0  0  0  0
 11 32  2  0  0  0  0
M  END
>  <Name>
Cisapride

>  <CAS #>
81098-60-4

>  <human Clearance (mL/min/kg)>
1.5

>  <Primary mechanism (metabolic, biliary or renal)>
metabolic

>  <seqId>
216.0

>  <Code (mechanism and clearance degree index)>
M1

>  < Five M1 and R1 test groups>
M1_1

>  <formamide>
0

>  <prodrug phosphates>
0

>  <VolSurf_V>
1013.12

>  <VolSurf_S>
693.575

>  <VolSurf_R>
1.46073

>  <VolSurf_G>
1.69532

>  <VolSurf_IW1>
0.0133811

>  <VolSurf_IW2>
0.019339

>  <VolSurf_IW3>
0.114772

>  <VolSurf_IW4>
0.70099

>  <VolSurf_ID1>
0.0184075

>  <VolSurf_ID2>
0.0601959

>  <VolSurf_ID3>
0.109712

>  <VolSurf_ID4>
0.166422

>  <VolSurf_HL1>
1.38911

>  <VolSurf_HL2>
0.814103

>  <VolSurf_A>
1.56142

>  <VolSurf_CP>
1.41521

>  <VolSurf_POL>
49.276

>  <VolSurf_MW>
466.953

>  <VolSurf_FLEX>
2.63824

>  <VolSurf_FLEX_RB>
0.219853

>  <VolSurf_NCC>
1.0

>  <VolSurf_LOGP n-Oct>
3.457

>  <VolSurf_LOGP c-Hex>
2.53

>  <VolSurf_PSA>
107.32

>  <VolSurf_HSA>
586.255

>  <VolSurf_PSAR>
0.154735

>  <VolSurf_PHSAR>
0.18306

>  <VolSurf_LgD5>
0.842243

>  <VolSurf_LgD6>
1.77402

>  <VolSurf_LgD7>
2.69429

>  <VolSurf_LgD7.5>
3.05617

>  <VolSurf_LgD8>
3.28674

>  <VolSurf_LgD9>
3.43573

>  <VolSurf_LgD10>
3.44551

>  <VolSurf_AUS7.4>
1.54472

>  <VolSurf_%FU4>
0.0208114

>  <VolSurf_%FU5>
0.207878

>  <VolSurf_%FU6>
2.04075

>  <VolSurf_%FU7>
17.241

>  <VolSurf_%FU8>
67.557

>  <VolSurf_%FU9>
95.2197

>  <VolSurf_%FU10>
97.3885

>  <ID>
123

>  <MOKAID>
124

>  <Clearance Route>
possible billary

>  <PC1>
2.45131

>  <PC2>
-2.98648

$$$$
Clazosentan
  -OEChem-08301611272D

 41 45  0     0  0  0  0  0  0999 V2000
   -0.8675    1.5026    0.0000 N   0  0  0  0  0  0  0  0  0  0  0  0
    0.0000    1.0052    0.0000 C   0  0  0  0  0  0  0  0  0  0  0  0
    0.0000    0.0000    0.0000 C   0  0  0  0  0  0  0  0  0  0  0  0
    0.8675   -0.4975    0.0000 C   0  0  0  0  0  0  0  0  0  0  0  0
    1.7350    0.0000    0.0000 N   0  0  0  0  0  0  0  0  0  0  0  0
    1.7350    1.0052    0.0000 C   0  0  0  0  0  0  0  0  0  0  0  0
    2.6025    1.5026    0.0000 C   0  0  0  0  0  0  0  0  0  0  0  0
    2.6025    2.5027    0.0000 C   0  0  0  0  0  0  0  0  0  0  0  0
    3.4746    3.0027    0.0000 C   0  0  0  0  0  0  0  0  0  0  0  0
    4.3465    2.5027    0.0000 N   0  0  0  0  0  0  0  0  0  0  0  0
    4.3376    1.4976    0.0000 C   0  0  0  0  0  0  0  0  0  0  0  0
    3.4656    0.9976    0.0000 C   0  0  0  0  0  0  0  0  0  0  0  0
    5.2007    0.9925    0.0000 C   0  0  0  0  0  0  0  0  0  0  0  0
    5.2963   -0.0029    0.0000 N   0  0  0  0  0  0  0  0  0  0  0  0
    6.2746   -0.2173    0.0000 N   0  0  0  0  0  0  0  0  0  0  0  0
    6.7829    0.6457    0.0000 N   0  0  0  0  0  0  0  0  0  0  0  0
    6.1157    1.3968    0.0000 N   0  0  0  0  0  0  0  0  0  0  0  0
    0.8675    1.5129    0.0000 N   0  0  0  0  0  0  0  0  0  0  0  0
    0.8675   -1.4975    0.0000 O   0  0  0  0  0  0  0  0  0  0  0  0
    1.7335   -1.9975    0.0000 C   0  0  0  0  0  0  0  0  0  0  0  0
    1.7335   -2.9975    0.0000 C   0  0  0  0  0  0  0  0  0  0  0  0
    2.5996   -3.4975    0.0000 O   0  0  0  0  0  0  0  0  0  0  0  0
   -0.8653   -0.5013    0.0000 O   0  0  0  0  0  0  0  0  0  0  0  0
   -0.8638   -1.5013    0.0000 C   0  0  0  0  0  0  0  0  0  0  0  0
    0.0022   -2.0013    0.0000 C   0  0  0  0  0  0  0  0  0  0  0  0
    0.0080   -3.0013    0.0000 C   0  0  0  0  0  0  0  0  0  0  0  0
   -0.8611   -3.5064    0.0000 C   0  0  0  0  0  0  0  0  0  0  0  0
   -1.7359   -3.0115    0.0000 C   0  0  0  0  0  0  0  0  0  0  0  0
   -1.7329   -2.0064    0.0000 C   0  0  0  0  0  0  0  0  0  0  0  0
   -2.5989   -1.5063    0.0000 O   0  0  0  0  0  0  0  0  0  0  0  0
   -3.4650   -2.0063    0.0000 C   0  0  0  0  0  0  0  0  0  0  0  0
   -0.8704    2.5026    0.0000 S   0  0  0  0  0  0  0  0  0  0  0  0
   -0.8734    3.5026    0.0000 C   0  0  0  0  0  0  0  0  0  0  0  0
   -0.0029    4.0052    0.0000 C   0  0  0  0  0  0  0  0  0  0  0  0
   -0.0058    5.0053    0.0000 C   0  0  0  0  0  0  0  0  0  0  0  0
   -0.8704    5.5078    0.0000 C   0  0  0  0  0  0  0  0  0  0  0  0
   -0.8689    6.5078    0.0000 C   0  0  0  0  0  0  0  0  0  0  0  0
   -1.7409    5.0052    0.0000 C   0  0  0  0  0  0  0  0  0  0  0  0
   -1.7468    4.0001    0.0000 N   0  0  0  0  0  0  0  0  0  0  0  0
    0.1295    2.5056    0.0000 O   0  0  0  0  0  0  0  0  0  0  0  0
   -1.8704    2.4997    0.0000 O   0  0  0  0  0  0  0  0  0  0  0  0
  1  2  1  0  0  0  0
  2 18  2  0  0  0  0
  2  3  1  0  0  0  0
  3  4  2  0  0  0  0
  4  5  1  0  0  0  0
  5  6  2  0  0  0  0
  6  7  1  0  0  0  0
  7 12  2  0  0  0  0
  7  8  1  0  0  0  0
  8  9  2  0  0  0  0
  9 10  1  0  0  0  0
 10 11  2  0  0  0  0
 11 12  1  0  0  0  0
 11 13  1  0  0  0  0
 13 17  1  0  0  0  0
 13 14  2  0  0  0  0
 14 15  1  0  0  0  0
 15 16  2  0  0  0  0
 16 17  1  0  0  0  0
  6 18  1  0  0  0  0
  4 19  1  0  0  0  0
 19 20  1  0  0  0  0
 20 21  1  0  0  0  0
 21 22  1  0  0  0  0
  3 23  1  0  0  0  0
 23 24  1  0  0  0  0
 24 29  2  0  0  0  0
 24 25  1  0  0  0  0
 25 26  2  0  0  0  0
 26 27  1  0  0  0  0
 27 28  2  0  0  0  0
 28 29  1  0  0  0  0
 29 30  1  0  0  0  0
 30 31  1  0  0  0  0
  1 32  1  0  0  0  0
 32 33  1  0  0  0  0
 33 39  2  0  0  0  0
 33 34  1  0  0  0  0
 34 35  2  0  0  0  0
 35 36  1  0  0  0  0
 36 37  1  0  0  0  0
 36 38  2  0  0  0  0
 38 39  1  0  0  0  0
 32 40  2  0  0  0  0
 32 41  2  0  0  0  0
M  END
>  <Name>
Clazosentan

>  <CAS #>
180384-56-9

>  <human Clearance (mL/min/kg)>
10.5

>  <Primary mechanism (metabolic, biliary or renal)>
Biliary

>  <seqId>
222.0

>  <Code (mechanism and clearance degree index)>
B1

>  < Five M1 and R1 test groups>
33

>  <formamide>
0

>  <prodrug phosphates>
0

>  <VolSurf_V>
1107.38

>  <VolSurf_S>
717.696

>  <VolSurf_R>
1.54296

>  <VolSurf_G>
1.63264

>  <VolSurf_IW1>
0.0568877

>  <VolSurf_IW2>
0.121797

>  <VolSurf_IW3>
0.255006

>  <VolSurf_IW4>
0.443358

>  <VolSurf_ID1>
0.0274989

>  <VolSurf_ID2>
0.0617491

>  <VolSurf_ID3>
0.0688694

>  <VolSurf_ID4>
0.0622067

>  <VolSurf_HL1>
4.86279

>  <VolSurf_HL2>
3.73704

>  <VolSurf_A>
3.69469

>  <VolSurf_CP>
0.576747

>  <VolSurf_POL>
56.903

>  <VolSurf_MW>
575.556

>  <VolSurf_FLEX>
2.83172

>  <VolSurf_FLEX_RB>
0.202266

>  <VolSurf_NCC>
2.0

>  <VolSurf_LOGP n-Oct>
2.639

>  <VolSurf_LOGP c-Hex>
-3.533

>  <VolSurf_PSA>
171.72

>  <VolSurf_HSA>
545.976

>  <VolSurf_PSAR>
0.239266

>  <VolSurf_PHSAR>
0.314519

>  <VolSurf_LgD5>
1.57752

>  <VolSurf_LgD6>
-0.19319

>  <VolSurf_LgD7>
-2.00291

>  <VolSurf_LgD7.5>
-2.47118

>  <VolSurf_LgD8>
-2.58523

>  <VolSurf_LgD9>
-2.60942

>  <VolSurf_LgD10>
-2.6109

>  <VolSurf_AUS7.4>
0.0

>  <VolSurf_%FU4>
47.8159

>  <VolSurf_%FU5>
8.66856

>  <VolSurf_%FU6>
0.144817

>  <VolSurf_%FU7>
0.00152963

>  <VolSurf_%FU8>
1.53807E-5

>  <VolSurf_%FU9>
1.5389E-7

>  <VolSurf_%FU10>
1.53883E-9

>  <ID>
124

>  <MOKAID>
125

>  <Clearance Route>
possible billary

>  <PC1>
-2.59491

>  <PC2>
-2.68803

$$$$
Clinafloxacin
  -OEChem-08301611272D

 25 28  0     1  0  0  0  0  0999 V2000
   -3.4489    1.7371    0.0000 N   0  0  0  0  0  0  0  0  0  0  0  0
   -2.4544    1.8418    0.0000 C   0  0  3  0  0  0  0  0  0  0  0  0
   -1.9549    2.7099    0.0000 C   0  0  0  0  0  0  0  0  0  0  0  0
   -0.9770    2.5008    0.0000 C   0  0  0  0  0  0  0  0  0  0  0  0
   -0.8675    1.5063    0.0000 N   0  0  3  0  0  0  0  0  0  0  0  0
   -1.7849    1.0968    0.0000 C   0  0  0  0  0  0  0  0  0  0  0  0
    0.0000    1.0089    0.0000 C   0  0  0  0  0  0  0  0  0  0  0  0
    0.0000    0.0000    0.0000 C   0  0  0  0  0  0  0  0  0  0  0  0
   -0.8653   -0.5013    0.0000 F   0  0  0  0  0  0  0  0  0  0  0  0
    0.8707   -0.4993    0.0000 C   0  0  0  0  0  0  0  0  0  0  0  0
    1.7371    0.0000    0.0000 C   0  0  0  0  0  0  0  0  0  0  0  0
    2.6039   -0.5053    0.0000 C   0  0  0  0  0  0  0  0  0  0  0  0
    2.5983   -1.5053    0.0000 O   0  0  0  0  0  0  0  0  0  0  0  0
    3.4805   -0.0073    0.0000 C   0  0  0  0  0  0  0  0  0  0  0  0
    3.4848    1.0014    0.0000 C   0  0  0  0  0  0  0  0  0  0  0  0
    2.6125    1.5125    0.0000 N   0  0  0  0  0  0  0  0  0  0  0  0
    2.6154    2.5125    0.0000 C   0  0  0  0  0  0  0  0  0  0  0  0
    3.1179    3.3792    0.0000 C   0  0  0  0  0  0  0  0  0  0  0  0
    2.1179    3.3821    0.0000 C   0  0  0  0  0  0  0  0  0  0  0  0
    1.7414    1.0089    0.0000 C   0  0  0  0  0  0  0  0  0  0  0  0
    0.8707    1.5185    0.0000 C   0  0  0  0  0  0  0  0  0  0  0  0
    0.8707    2.5185    0.0000 Cl  0  0  0  0  0  0  0  0  0  0  0  0
    4.3437   -0.5122    0.0000 C   0  0  0  0  0  0  0  0  0  0  0  0
    4.3381   -1.5121    0.0000 O   0  0  0  0  0  0  0  0  0  0  0  0
    5.2125   -0.0170    0.0000 O   0  0  0  0  0  0  0  0  0  0  0  0
  1  2  1  0  0  0  0
  2  6  1  0  0  0  0
  2  3  1  0  0  0  0
  3  4  1  0  0  0  0
  4  5  1  0  0  0  0
  5  6  1  0  0  0  0
  5  7  1  0  0  0  0
  7 21  2  0  0  0  0
  7  8  1  0  0  0  0
  8  9  1  0  0  0  0
  8 10  2  0  0  0  0
 10 11  1  0  0  0  0
 11 20  2  0  0  0  0
 11 12  1  0  0  0  0
 12 13  2  0  0  0  0
 12 14  1  0  0  0  0
 14 15  2  0  0  0  0
 15 16  1  0  0  0  0
 16 17  1  0  0  0  0
 17 19  1  0  0  0  0
 17 18  1  0  0  0  0
 18 19  1  0  0  0  0
 16 20  1  0  0  0  0
 20 21  1  0  0  0  0
 21 22  1  0  0  0  0
 14 23  1  0  0  0  0
 23 24  2  0  0  0  0
 23 25  1  0  0  0  0
M  END
>  <Name>
Clinafloxacin

>  <CAS #>
105956-97-6

>  <human Clearance (mL/min/kg)>
4.7

>  <Primary mechanism (metabolic, biliary or renal)>
renal

>  <seqId>
225.0

>  <Code (mechanism and clearance degree index)>
R1

>  < Five M1 and R1 test groups>
R1_2

>  <formamide>
0

>  <prodrug phosphates>
0

>  <VolSurf_V>
713.5

>  <VolSurf_S>
478.116

>  <VolSurf_R>
1.49231

>  <VolSurf_G>
1.37778

>  <VolSurf_IW1>
0.0984417

>  <VolSurf_IW2>
0.226652

>  <VolSurf_IW3>
0.474005

>  <VolSurf_IW4>
0.950812

>  <VolSurf_ID1>
0.0604407

>  <VolSurf_ID2>
0.0753973

>  <VolSurf_ID3>
0.0780267

>  <VolSurf_ID4>
0.106496

>  <VolSurf_HL1>
3.30404

>  <VolSurf_HL2>
2.71648

>  <VolSurf_A>
3.76423

>  <VolSurf_CP>
0.911221

>  <VolSurf_POL>
35.181

>  <VolSurf_MW>
365.786

>  <VolSurf_FLEX>
0.475403

>  <VolSurf_FLEX_RB>
0.118851

>  <VolSurf_NCC>
2.0

>  <VolSurf_LOGP n-Oct>
2.586

>  <VolSurf_LOGP c-Hex>
-0.684

>  <VolSurf_PSA>
109.22

>  <VolSurf_HSA>
368.896

>  <VolSurf_PSAR>
0.228438

>  <VolSurf_PHSAR>
0.296072

>  <VolSurf_LgD5>
-0.433097

>  <VolSurf_LgD6>
0.0326523

>  <VolSurf_LgD7>
0.269588

>  <VolSurf_LgD7.5>
0.29491

>  <VolSurf_LgD8>
0.296532

>  <VolSurf_LgD9>
0.215201

>  <VolSurf_LgD10>
-0.109119

>  <VolSurf_AUS7.4>
0.0

>  <VolSurf_%FU4>
0.0

>  <VolSurf_%FU5>
0.0

>  <VolSurf_%FU6>
0.0

>  <VolSurf_%FU7>
0.0

>  <VolSurf_%FU8>
0.0

>  <VolSurf_%FU9>
0.0

>  <VolSurf_%FU10>
0.0

>  <ID>
125

>  <MOKAID>
126

>  <Clearance Route>
uncertain

>  <PC1>
-0.039736099999999996

>  <PC2>
0.800277

$$$$
Clodronate
  -OEChem-08301611272D

 11 10  0     0  0  0  0  0  0999 V2000
    0.0000    0.0000    0.0000 C   0  0  0  0  0  0  0  0  0  0  0  0
    1.0000    0.0000    0.0000 P   0  0  0  0  0  0  0  0  0  0  0  0
    1.0000    1.0000    0.0000 O   0  0  0  0  0  0  0  0  0  0  0  0
    1.0000   -1.0000    0.0000 O   0  0  0  0  0  0  0  0  0  0  0  0
    2.0000   -0.0000    0.0000 O   0  0  0  0  0  0  0  0  0  0  0  0
   -1.0000    0.0000    0.0000 P   0  0  0  0  0  0  0  0  0  0  0  0
   -1.0000   -1.0000    0.0000 O   0  0  0  0  0  0  0  0  0  0  0  0
   -1.0000    1.0000    0.0000 O   0  0  0  0  0  0  0  0  0  0  0  0
   -2.0000    0.0000    0.0000 O   0  0  0  0  0  0  0  0  0  0  0  0
   -0.0000   -1.0000    0.0000 Cl  0  0  0  0  0  0  0  0  0  0  0  0
    0.0000    1.0000    0.0000 Cl  0  0  0  0  0  0  0  0  0  0  0  0
  1  2  1  0  0  0  0
  2  3  1  0  0  0  0
  2  4  1  0  0  0  0
  2  5  2  0  0  0  0
  1  6  1  0  0  0  0
  6  7  1  0  0  0  0
  6  8  1  0  0  0  0
  6  9  2  0  0  0  0
  1 10  1  0  0  0  0
  1 11  1  0  0  0  0
M  END
>  <Name>
Clodronate

>  <CAS #>
10596-23-3

>  <human Clearance (mL/min/kg)>
1.6

>  <Primary mechanism (metabolic, biliary or renal)>
renal

>  <seqId>
227.0

>  <Code (mechanism and clearance degree index)>
R1

>  < Five M1 and R1 test groups>
R1_5

>  <formamide>
0

>  <prodrug phosphates>
0

>  <VolSurf_V>
387.625

>  <VolSurf_S>
292.861

>  <VolSurf_R>
1.32358

>  <VolSurf_G>
1.21578

>  <VolSurf_IW1>
0.089677

>  <VolSurf_IW2>
0.154964

>  <VolSurf_IW3>
0.317686

>  <VolSurf_IW4>
1.2431

>  <VolSurf_ID1>
0.124305

>  <VolSurf_ID2>
0.311801

>  <VolSurf_ID3>
0.0

>  <VolSurf_ID4>
0.0

>  <VolSurf_HL1>
136.1

>  <VolSurf_HL2>
153.5

>  <VolSurf_A>
6.06352

>  <VolSurf_CP>
0.00656868

>  <VolSurf_POL>
19.98

>  <VolSurf_MW>
241.868

>  <VolSurf_FLEX>
0.802723

>  <VolSurf_FLEX_RB>
0.267574

>  <VolSurf_NCC>
2.0

>  <VolSurf_LOGP n-Oct>
-1.153

>  <VolSurf_LOGP c-Hex>
-2.721

>  <VolSurf_PSA>
105.58

>  <VolSurf_HSA>
187.281

>  <VolSurf_PSAR>
0.360512

>  <VolSurf_PHSAR>
0.563751

>  <VolSurf_LgD5>
-5.63435

>  <VolSurf_LgD6>
-6.84274

>  <VolSurf_LgD7>
-7.45892

>  <VolSurf_LgD7.5>
-7.53873

>  <VolSurf_LgD8>
-7.57753

>  <VolSurf_LgD9>
-7.72643

>  <VolSurf_LgD10>
-8.1411

>  <VolSurf_AUS7.4>
0.0

>  <VolSurf_%FU4>
0.00929729

>  <VolSurf_%FU5>
1.42049E-4

>  <VolSurf_%FU6>
3.91912E-7

>  <VolSurf_%FU7>
4.61126E-10

>  <VolSurf_%FU8>
4.47815E-13

>  <VolSurf_%FU9>
3.06602E-16

>  <VolSurf_%FU10>
7.36115E-20

>  <ID>
126

>  <MOKAID>
127

>  <Clearance Route>
renal

>  <PC1>
-6.5869

>  <PC2>
4.96744

$$$$
Clomipramine
  -OEChem-08301611272D

 22 24  0     0  0  0  0  0  0999 V2000
    1.1301   -5.0230    0.0000 C   0  0  0  0  0  0  0  0  0  0  0  0
    1.1257   -4.0230    0.0000 N   0  0  0  0  0  0  0  0  0  0  0  0
    0.2575   -3.5268    0.0000 C   0  0  0  0  0  0  0  0  0  0  0  0
    1.9896   -3.5192    0.0000 C   0  0  0  0  0  0  0  0  0  0  0  0
    1.9852   -2.5192    0.0000 C   0  0  0  0  0  0  0  0  0  0  0  0
    2.8490   -2.0154    0.0000 C   0  0  0  0  0  0  0  0  0  0  0  0
    2.8446   -1.0154    0.0000 N   0  0  0  0  0  0  0  0  0  0  0  0
    1.9312   -0.5840    0.0000 C   0  0  0  0  0  0  0  0  0  0  0  0
    1.2003   -1.2778    0.0000 C   0  0  0  0  0  0  0  0  0  0  0  0
    0.2313   -0.9837    0.0000 C   0  0  0  0  0  0  0  0  0  0  0  0
    0.0000    0.0000    0.0000 C   0  0  0  0  0  0  0  0  0  0  0  0
    0.7377    0.6898    0.0000 C   0  0  0  0  0  0  0  0  0  0  0  0
    1.6999    0.3997    0.0000 C   0  0  0  0  0  0  0  0  0  0  0  0
    2.3292    1.1930    0.0000 C   0  0  0  0  0  0  0  0  0  0  0  0
    3.3333    1.1944    0.0000 C   0  0  0  0  0  0  0  0  0  0  0  0
    3.9620    0.4062    0.0000 C   0  0  0  0  0  0  0  0  0  0  0  0
    4.9146    0.7195    0.0000 C   0  0  0  0  0  0  0  0  0  0  0  0
    5.6612    0.0428    0.0000 C   0  0  0  0  0  0  0  0  0  0  0  0
    5.4510   -0.9405    0.0000 C   0  0  0  0  0  0  0  0  0  0  0  0
    6.1924   -1.6115    0.0000 Cl  0  0  0  0  0  0  0  0  0  0  0  0
    4.4941   -1.2472    0.0000 C   0  0  0  0  0  0  0  0  0  0  0  0
    3.7517   -0.5772    0.0000 C   0  0  0  0  0  0  0  0  0  0  0  0
  1  2  1  0  0  0  0
  2  3  1  0  0  0  0
  2  4  1  0  0  0  0
  4  5  1  0  0  0  0
  5  6  1  0  0  0  0
  6  7  1  0  0  0  0
  7 22  1  0  0  0  0
  7  8  1  0  0  0  0
  8 13  2  0  0  0  0
  8  9  1  0  0  0  0
  9 10  2  0  0  0  0
 10 11  1  0  0  0  0
 11 12  2  0  0  0  0
 12 13  1  0  0  0  0
 13 14  1  0  0  0  0
 14 15  1  0  0  0  0
 15 16  1  0  0  0  0
 16 22  2  0  0  0  0
 16 17  1  0  0  0  0
 17 18  2  0  0  0  0
 18 19  1  0  0  0  0
 19 20  1  0  0  0  0
 19 21  2  0  0  0  0
 21 22  1  0  0  0  0
M  END
>  <Name>
Clomipramine

>  <CAS #>
303-49-1

>  <human Clearance (mL/min/kg)>
8.2

>  <Primary mechanism (metabolic, biliary or renal)>
metabolic

>  <seqId>
229.0

>  <Code (mechanism and clearance degree index)>
M1

>  < Five M1 and R1 test groups>
M1_4

>  <formamide>
0

>  <prodrug phosphates>
0

>  <VolSurf_V>
771.0

>  <VolSurf_S>
516.349

>  <VolSurf_R>
1.49318

>  <VolSurf_G>
1.43098

>  <VolSurf_IW1>
0.00862989

>  <VolSurf_IW2>
0.172637

>  <VolSurf_IW3>
0.833865

>  <VolSurf_IW4>
1.15595

>  <VolSurf_ID1>
0.0231584

>  <VolSurf_ID2>
0.0696562

>  <VolSurf_ID3>
0.0968647

>  <VolSurf_ID4>
0.115725

>  <VolSurf_HL1>
0.0655509

>  <VolSurf_HL2>
0.0434783

>  <VolSurf_A>
6.63061

>  <VolSurf_CP>
14.2238

>  <VolSurf_POL>
38.844

>  <VolSurf_MW>
315.86

>  <VolSurf_FLEX>
1.27316

>  <VolSurf_FLEX_RB>
0.212193

>  <VolSurf_NCC>
1.0

>  <VolSurf_LOGP n-Oct>
5.063

>  <VolSurf_LOGP c-Hex>
4.214

>  <VolSurf_PSA>
14.42

>  <VolSurf_HSA>
501.929

>  <VolSurf_PSAR>
0.0279268

>  <VolSurf_PHSAR>
0.0287292

>  <VolSurf_LgD5>
1.28342

>  <VolSurf_LgD6>
2.06458

>  <VolSurf_LgD7>
3.03132

>  <VolSurf_LgD7.5>
3.5204

>  <VolSurf_LgD8>
3.9936

>  <VolSurf_LgD9>
4.74618

>  <VolSurf_LgD10>
5.01869

>  <VolSurf_AUS7.4>
0.474925

>  <VolSurf_%FU4>
8.46481E-4

>  <VolSurf_%FU5>
0.00921648

>  <VolSurf_%FU6>
0.0929136

>  <VolSurf_%FU7>
0.92225

>  <VolSurf_%FU8>
8.51638

>  <VolSurf_%FU9>
48.2114

>  <VolSurf_%FU10>
90.3

>  <ID>
127

>  <MOKAID>
128

>  <Clearance Route>
metabolic

>  <PC1>
4.1237

>  <PC2>
-0.5627300000000001

$$$$
Clonazepam
  -OEChem-08301611272D

 22 24  0     0  0  0  0  0  0999 V2000
    4.3504   -1.0038    0.0000 Cl  0  0  0  0  0  0  0  0  0  0  0  0
    3.4907   -1.5146    0.0000 C   0  0  0  0  0  0  0  0  0  0  0  0
    3.5017   -2.5146    0.0000 C   0  0  0  0  0  0  0  0  0  0  0  0
    2.6442   -3.0292    0.0000 C   0  0  0  0  0  0  0  0  0  0  0  0
    1.7668   -2.5388    0.0000 C   0  0  0  0  0  0  0  0  0  0  0  0
    1.7468   -1.5338    0.0000 C   0  0  0  0  0  0  0  0  0  0  0  0
    2.6132   -1.0242    0.0000 C   0  0  0  0  0  0  0  0  0  0  0  0
    2.6022   -0.0243    0.0000 C   0  0  0  0  0  0  0  0  0  0  0  0
    3.5069    0.4226    0.0000 N   0  0  0  0  0  0  0  0  0  0  0  0
    3.7246    1.4039    0.0000 C   0  0  0  0  0  0  0  0  0  0  0  0
    3.0873    2.1814    0.0000 C   0  0  0  0  0  0  0  0  0  0  0  0
    3.5119    3.0868    0.0000 O   0  0  0  0  0  0  0  0  0  0  0  0
    2.0794    2.1743    0.0000 N   0  0  0  0  0  0  0  0  0  0  0  0
    1.4584    1.3796    0.0000 C   0  0  0  0  0  0  0  0  0  0  0  0
    0.5003    1.6662    0.0000 C   0  0  0  0  0  0  0  0  0  0  0  0
   -0.2322    0.9784    0.0000 C   0  0  0  0  0  0  0  0  0  0  0  0
    0.0000    0.0000    0.0000 C   0  0  0  0  0  0  0  0  0  0  0  0
    0.9648   -0.2906    0.0000 C   0  0  0  0  0  0  0  0  0  0  0  0
    1.6906    0.4013    0.0000 C   0  0  0  0  0  0  0  0  0  0  0  0
   -0.7278   -0.6857    0.0000 N   0  0  0  0  0  0  0  0  0  0  0  0
   -0.4979   -1.6589    0.0000 O   0  0  0  0  0  0  0  0  0  0  0  0
   -1.6856   -0.3983    0.0000 O   0  0  0  0  0  0  0  0  0  0  0  0
  1  2  1  0  0  0  0
  2  7  2  0  0  0  0
  2  3  1  0  0  0  0
  3  4  2  0  0  0  0
  4  5  1  0  0  0  0
  5  6  2  0  0  0  0
  6  7  1  0  0  0  0
  7  8  1  0  0  0  0
  8 19  1  0  0  0  0
  8  9  2  0  0  0  0
  9 10  1  0  0  0  0
 10 11  1  0  0  0  0
 11 12  2  0  0  0  0
 11 13  1  0  0  0  0
 13 14  1  0  0  0  0
 14 19  2  0  0  0  0
 14 15  1  0  0  0  0
 15 16  2  0  0  0  0
 16 17  1  0  0  0  0
 17 18  2  0  0  0  0
 18 19  1  0  0  0  0
 17 20  1  0  0  0  0
 20 21  2  0  0  0  0
 20 22  2  0  0  0  0
M  END
>  <Name>
Clonazepam

>  <CAS #>
1622-61-3

>  <human Clearance (mL/min/kg)>
0.88

>  <Primary mechanism (metabolic, biliary or renal)>
Metabolic

>  <seqId>
230.0

>  <Code (mechanism and clearance degree index)>
M1

>  < Five M1 and R1 test groups>
M1_1

>  <formamide>
0

>  <prodrug phosphates>
0

>  <VolSurf_V>
637.75

>  <VolSurf_S>
435.093

>  <VolSurf_R>
1.46578

>  <VolSurf_G>
1.33812

>  <VolSurf_IW1>
0.0782954

>  <VolSurf_IW2>
0.209945

>  <VolSurf_IW3>
0.871904

>  <VolSurf_IW4>
1.71552

>  <VolSurf_ID1>
0.0432318

>  <VolSurf_ID2>
0.0367343

>  <VolSurf_ID3>
0.0275641

>  <VolSurf_ID4>
0.0489899

>  <VolSurf_HL1>
1.17365

>  <VolSurf_HL2>
0.815873

>  <VolSurf_A>
4.21601

>  <VolSurf_CP>
4.32461

>  <VolSurf_POL>
30.936

>  <VolSurf_MW>
315.711

>  <VolSurf_FLEX>
0.56524

>  <VolSurf_FLEX_RB>
0.28262

>  <VolSurf_NCC>
0.0

>  <VolSurf_LOGP n-Oct>
2.743

>  <VolSurf_LOGP c-Hex>
1.967

>  <VolSurf_PSA>
78.88

>  <VolSurf_HSA>
356.213

>  <VolSurf_PSAR>
0.181295

>  <VolSurf_PHSAR>
0.221441

>  <VolSurf_LgD5>
2.74275

>  <VolSurf_LgD6>
2.74296

>  <VolSurf_LgD7>
2.74284

>  <VolSurf_LgD7.5>
2.74252

>  <VolSurf_LgD8>
2.74147

>  <VolSurf_LgD9>
2.72797

>  <VolSurf_LgD10>
2.61197

>  <VolSurf_AUS7.4>
2.0

>  <VolSurf_%FU4>
99.4411

>  <VolSurf_%FU5>
99.9435

>  <VolSurf_%FU6>
99.9909

>  <VolSurf_%FU7>
99.9642

>  <VolSurf_%FU8>
99.6489

>  <VolSurf_%FU9>
96.5969

>  <VolSurf_%FU10>
73.948

>  <ID>
128

>  <MOKAID>
129

>  <Clearance Route>
metabolic

>  <PC1>
4.511880000000001

>  <PC2>
1.07579

$$$$
Clozapine
  -OEChem-08301611272D

 23 26  0     0  0  0  0  0  0999 V2000
    5.0706    4.8088    0.0000 C   0  0  0  0  0  0  0  0  0  0  0  0
    4.6373    3.9075    0.0000 N   0  0  0  0  0  0  0  0  0  0  0  0
    3.6357    3.8258    0.0000 C   0  0  0  0  0  0  0  0  0  0  0  0
    3.2003    2.9199    0.0000 C   0  0  0  0  0  0  0  0  0  0  0  0
    3.7665    2.0957    0.0000 N   0  0  0  0  0  0  0  0  0  0  0  0
    4.7639    2.1684    0.0000 C   0  0  0  0  0  0  0  0  0  0  0  0
    5.1993    3.0743    0.0000 C   0  0  0  0  0  0  0  0  0  0  0  0
    3.3333    1.1944    0.0000 C   0  0  0  0  0  0  0  0  0  0  0  0
    2.3292    1.1930    0.0000 N   0  0  0  0  0  0  0  0  0  0  0  0
    1.6999    0.3997    0.0000 C   0  0  0  0  0  0  0  0  0  0  0  0
    0.7377    0.6898    0.0000 C   0  0  0  0  0  0  0  0  0  0  0  0
    0.0000    0.0000    0.0000 C   0  0  0  0  0  0  0  0  0  0  0  0
   -0.9571    0.2898    0.0000 Cl  0  0  0  0  0  0  0  0  0  0  0  0
    0.2313   -0.9837    0.0000 C   0  0  0  0  0  0  0  0  0  0  0  0
    1.2003   -1.2778    0.0000 C   0  0  0  0  0  0  0  0  0  0  0  0
    1.9312   -0.5840    0.0000 C   0  0  0  0  0  0  0  0  0  0  0  0
    2.8446   -1.0154    0.0000 N   0  0  0  0  0  0  0  0  0  0  0  0
    3.7517   -0.5772    0.0000 C   0  0  0  0  0  0  0  0  0  0  0  0
    4.4941   -1.2472    0.0000 C   0  0  0  0  0  0  0  0  0  0  0  0
    5.4510   -0.9405    0.0000 C   0  0  0  0  0  0  0  0  0  0  0  0
    5.6612    0.0428    0.0000 C   0  0  0  0  0  0  0  0  0  0  0  0
    4.9146    0.7195    0.0000 C   0  0  0  0  0  0  0  0  0  0  0  0
    3.9620    0.4062    0.0000 C   0  0  0  0  0  0  0  0  0  0  0  0
  1  2  1  0  0  0  0
  2  7  1  0  0  0  0
  2  3  1  0  0  0  0
  3  4  1  0  0  0  0
  4  5  1  0  0  0  0
  5  6  1  0  0  0  0
  6  7  1  0  0  0  0
  5  8  1  0  0  0  0
  8 23  1  0  0  0  0
  8  9  2  0  0  0  0
  9 10  1  0  0  0  0
 10 16  2  0  0  0  0
 10 11  1  0  0  0  0
 11 12  2  0  0  0  0
 12 13  1  0  0  0  0
 12 14  1  0  0  0  0
 14 15  2  0  0  0  0
 15 16  1  0  0  0  0
 16 17  1  0  0  0  0
 17 18  1  0  0  0  0
 18 23  2  0  0  0  0
 18 19  1  0  0  0  0
 19 20  2  0  0  0  0
 20 21  1  0  0  0  0
 21 22  2  0  0  0  0
 22 23  1  0  0  0  0
M  END
>  <Name>
Clozapine

>  <CAS #>
5786-21-0

>  <human Clearance (mL/min/kg)>
2.5

>  <Primary mechanism (metabolic, biliary or renal)>
metabolic

>  <seqId>
232.0

>  <Code (mechanism and clearance degree index)>
M1

>  < Five M1 and R1 test groups>
M1_3

>  <formamide>
0

>  <prodrug phosphates>
0

>  <VolSurf_V>
725.75

>  <VolSurf_S>
482.328

>  <VolSurf_R>
1.50468

>  <VolSurf_G>
1.37246

>  <VolSurf_IW1>
0.0147274

>  <VolSurf_IW2>
0.0931167

>  <VolSurf_IW3>
0.301648

>  <VolSurf_IW4>
1.48191

>  <VolSurf_ID1>
0.0196192

>  <VolSurf_ID2>
0.057884

>  <VolSurf_ID3>
0.0994719

>  <VolSurf_ID4>
0.116213

>  <VolSurf_HL1>
0.182353

>  <VolSurf_HL2>
0.0956938

>  <VolSurf_A>
2.51541

>  <VolSurf_CP>
9.39093

>  <VolSurf_POL>
38.646

>  <VolSurf_MW>
327.831

>  <VolSurf_FLEX>
0.30596

>  <VolSurf_FLEX_RB>
0.15298

>  <VolSurf_NCC>
1.0

>  <VolSurf_LOGP n-Oct>
4.491

>  <VolSurf_LOGP c-Hex>
1.485

>  <VolSurf_PSA>
39.08

>  <VolSurf_HSA>
443.248

>  <VolSurf_PSAR>
0.0810236

>  <VolSurf_PHSAR>
0.0881673

>  <VolSurf_LgD5>
1.9518

>  <VolSurf_LgD6>
2.87858

>  <VolSurf_LgD7>
3.78627

>  <VolSurf_LgD7.5>
4.13159

>  <VolSurf_LgD8>
4.34258

>  <VolSurf_LgD9>
4.47365

>  <VolSurf_LgD10>
4.48923

>  <VolSurf_AUS7.4>
1.58894

>  <VolSurf_%FU4>
0.0125415

>  <VolSurf_%FU5>
0.223356

>  <VolSurf_%FU6>
2.37152

>  <VolSurf_%FU7>
19.6786

>  <VolSurf_%FU8>
71.032

>  <VolSurf_%FU9>
96.082

>  <VolSurf_%FU10>
99.5939

>  <ID>
129

>  <MOKAID>
130

>  <Clearance Route>
metabolic

>  <PC1>
4.58245

>  <PC2>
-0.273665

$$$$
Cocaine
  -OEChem-08301611272D

 24 26  0     1  0  0  0  0  0999 V2000
    1.1716    3.8736    0.0000 C   0  0  0  0  0  0  0  0  0  0  0  0
    0.3602    3.2892    0.0000 O   0  0  0  0  0  0  0  0  0  0  0  0
    0.4606    2.2942    0.0000 C   0  0  0  0  0  0  0  0  0  0  0  0
    1.3725    1.8837    0.0000 O   0  0  0  0  0  0  0  0  0  0  0  0
   -0.3508    1.7098    0.0000 C   0  0  1  0  0  0  0  0  0  0  0  0
    0.0000    0.0000    0.0000 C   0  0  2  0  0  0  0  0  0  0  0  0
   -0.8184    0.9864    0.0000 C   0  0  0  0  0  0  0  0  0  0  0  0
   -2.1336    1.3957    0.0000 C   0  0  2  0  0  0  0  0  0  0  0  0
   -3.6680    0.7672    0.0000 C   0  0  0  0  0  0  0  0  0  0  0  0
   -3.2953    1.6952    0.0000 C   0  0  0  0  0  0  0  0  0  0  0  0
   -1.6002    2.4331    0.0000 C   0  0  1  0  0  0  0  0  0  0  0  0
   -1.9728    3.8288    0.0000 N   0  0  3  0  0  0  0  0  0  0  0  0
   -2.0701    4.8241    0.0000 C   0  0  0  0  0  0  0  0  0  0  0  0
    0.4327   -0.9015    0.0000 O   0  0  0  0  0  0  0  0  0  0  0  0
    1.4298   -0.9776    0.0000 C   0  0  0  0  0  0  0  0  0  0  0  0
    1.9942   -0.1521    0.0000 O   0  0  0  0  0  0  0  0  0  0  0  0
    1.8625   -1.8791    0.0000 C   0  0  0  0  0  0  0  0  0  0  0  0
    2.8650   -1.9526    0.0000 C   0  0  0  0  0  0  0  0  0  0  0  0
    3.2977   -2.8542    0.0000 C   0  0  0  0  0  0  0  0  0  0  0  0
    2.7381   -3.6830    0.0000 C   0  0  0  0  0  0  0  0  0  0  0  0
    1.7356   -3.6095    0.0000 C   0  0  0  0  0  0  0  0  0  0  0  0
    1.2927   -2.7072    0.0000 C   0  0  0  0  0  0  0  0  0  0  0  0
   -2.0901    0.3966    0.0000 H   0  0  0  0  0  0  0  0  0  0  0  0
   -0.8062    3.0410    0.0000 H   0  0  0  0  0  0  0  0  0  0  0  0
  1  2  1  0  0  0  0
  2  3  1  0  0  0  0
  3  4  2  0  0  0  0
  5  3  1  1  0  0  0
  5 11  1  0  0  0  0
  5  6  1  0  0  0  0
  6  7  1  0  0  0  0
  7  8  1  0  0  0  0
  8 12  1  0  0  0  0
  8  9  1  0  0  0  0
  9 10  1  0  0  0  0
 10 11  1  0  0  0  0
 11 12  1  0  0  0  0
 12 13  1  0  0  0  0
  6 14  1  1  0  0  0
 14 15  1  0  0  0  0
 15 16  2  0  0  0  0
 15 17  1  0  0  0  0
 17 22  2  0  0  0  0
 17 18  1  0  0  0  0
 18 19  2  0  0  0  0
 19 20  1  0  0  0  0
 20 21  2  0  0  0  0
 21 22  1  0  0  0  0
  8 23  1  1  0  0  0
 11 24  1  6  0  0  0
M  END
>  <Name>
Cocaine

>  <CAS #>
50-36-2

>  <human Clearance (mL/min/kg)>
32.0

>  <Primary mechanism (metabolic, biliary or renal)>
metabolic

>  <seqId>
234.0

>  <Code (mechanism and clearance degree index)>
M1

>  < Five M1 and R1 test groups>
M1_3

>  <formamide>
0

>  <prodrug phosphates>
0

>  <VolSurf_V>
683.25

>  <VolSurf_S>
460.049

>  <VolSurf_R>
1.48517

>  <VolSurf_G>
1.358

>  <VolSurf_IW1>
0.0169444

>  <VolSurf_IW2>
0.055946

>  <VolSurf_IW3>
0.0992395

>  <VolSurf_IW4>
0.12481

>  <VolSurf_ID1>
0.0258545

>  <VolSurf_ID2>
0.091602

>  <VolSurf_ID3>
0.304061

>  <VolSurf_ID4>
0.463013

>  <VolSurf_HL1>
3.5283

>  <VolSurf_HL2>
5.88462

>  <VolSurf_A>
2.25723

>  <VolSurf_CP>
0.414448

>  <VolSurf_POL>
33.791

>  <VolSurf_MW>
304.361

>  <VolSurf_FLEX>
1.42082

>  <VolSurf_FLEX_RB>
0.202974

>  <VolSurf_NCC>
1.0

>  <VolSurf_LOGP n-Oct>
2.794

>  <VolSurf_LOGP c-Hex>
2.709

>  <VolSurf_PSA>
64.01

>  <VolSurf_HSA>
396.039

>  <VolSurf_PSAR>
0.139137

>  <VolSurf_PHSAR>
0.161626

>  <VolSurf_LgD5>
0.850088

>  <VolSurf_LgD6>
1.01539

>  <VolSurf_LgD7>
1.6163

>  <VolSurf_LgD7.5>
2.01837

>  <VolSurf_LgD8>
2.37396

>  <VolSurf_LgD9>
2.72741

>  <VolSurf_LgD10>
2.78685

>  <VolSurf_AUS7.4>
1.13733

>  <VolSurf_%FU4>
0.00595854

>  <VolSurf_%FU5>
0.0595534

>  <VolSurf_%FU6>
0.592359

>  <VolSurf_%FU7>
5.62378

>  <VolSurf_%FU8>
37.339

>  <VolSurf_%FU9>
85.6299

>  <VolSurf_%FU10>
98.3495

>  <ID>
130

>  <MOKAID>
131

>  <Clearance Route>
metabolic

>  <PC1>
2.09578

>  <PC2>
-0.08926619999999999

$$$$
Cotinine
  -OEChem-08301611272D

 13 14  0     1  0  0  0  0  0999 V2000
    2.8543    1.3827    0.0000 C   0  0  0  0  0  0  0  0  0  0  0  0
    2.6461    0.4047    0.0000 N   0  0  0  0  0  0  0  0  0  0  0  0
    1.7328   -0.0038    0.0000 C   0  0  1  0  0  0  0  0  0  0  0  0
    1.8328   -0.9988    0.0000 C   0  0  0  0  0  0  0  0  0  0  0  0
    2.8120   -1.2088    0.0000 C   0  0  0  0  0  0  0  0  0  0  0  0
    3.3166   -0.3435    0.0000 C   0  0  0  0  0  0  0  0  0  0  0  0
    4.3114   -0.2423    0.0000 O   0  0  0  0  0  0  0  0  0  0  0  0
    0.8675    0.4975    0.0000 C   0  0  0  0  0  0  0  0  0  0  0  0
    0.0000    0.0000    0.0000 C   0  0  0  0  0  0  0  0  0  0  0  0
   -0.8675    0.4975    0.0000 C   0  0  0  0  0  0  0  0  0  0  0  0
   -0.8675    1.5027    0.0000 C   0  0  0  0  0  0  0  0  0  0  0  0
    0.0000    2.0104    0.0000 N   0  0  0  0  0  0  0  0  0  0  0  0
    0.8675    1.5027    0.0000 C   0  0  0  0  0  0  0  0  0  0  0  0
  1  2  1  0  0  0  0
  2  6  1  0  0  0  0
  2  3  1  0  0  0  0
  3  4  1  0  0  0  0
  4  5  1  0  0  0  0
  5  6  1  0  0  0  0
  6  7  2  0  0  0  0
  3  8  1  1  0  0  0
  8 13  2  0  0  0  0
  8  9  1  0  0  0  0
  9 10  2  0  0  0  0
 10 11  1  0  0  0  0
 11 12  2  0  0  0  0
 12 13  1  0  0  0  0
M  END
>  <Name>
Cotinine

>  <CAS #>
486-56-6

>  <human Clearance (mL/min/kg)>
0.89

>  <Primary mechanism (metabolic, biliary or renal)>
metabolic

>  <seqId>
239.0

>  <Code (mechanism and clearance degree index)>
M1

>  < Five M1 and R1 test groups>
M1_2

>  <formamide>
0

>  <prodrug phosphates>
0

>  <VolSurf_V>
441.25

>  <VolSurf_S>
316.361

>  <VolSurf_R>
1.39477

>  <VolSurf_G>
1.19912

>  <VolSurf_IW1>
0.147875

>  <VolSurf_IW2>
0.471637

>  <VolSurf_IW3>
0.924386

>  <VolSurf_IW4>
1.37122

>  <VolSurf_ID1>
0.0720223

>  <VolSurf_ID2>
0.0787109

>  <VolSurf_ID3>
0.119599

>  <VolSurf_ID4>
0.184779

>  <VolSurf_HL1>
1.90074

>  <VolSurf_HL2>
1.59119

>  <VolSurf_A>
3.92924

>  <VolSurf_CP>
1.71174

>  <VolSurf_POL>
19.398

>  <VolSurf_MW>
176.215

>  <VolSurf_FLEX>
0.274593

>  <VolSurf_FLEX_RB>
0.137296

>  <VolSurf_NCC>
0.0

>  <VolSurf_LOGP n-Oct>
-0.326

>  <VolSurf_LOGP c-Hex>
-0.432

>  <VolSurf_PSA>
32.71

>  <VolSurf_HSA>
283.651

>  <VolSurf_PSAR>
0.103395

>  <VolSurf_PHSAR>
0.115318

>  <VolSurf_LgD5>
-0.577065

>  <VolSurf_LgD6>
-0.358732

>  <VolSurf_LgD7>
-0.329387

>  <VolSurf_LgD7.5>
-0.327074

>  <VolSurf_LgD8>
-0.32634

>  <VolSurf_LgD9>
-0.326034

>  <VolSurf_LgD10>
-0.326003

>  <VolSurf_AUS7.4>
2.0

>  <VolSurf_%FU4>
11.3239

>  <VolSurf_%FU5>
56.0825

>  <VolSurf_%FU6>
92.7378

>  <VolSurf_%FU7>
99.223

>  <VolSurf_%FU8>
99.9218

>  <VolSurf_%FU9>
99.9922

>  <VolSurf_%FU10>
99.9992

>  <ID>
131

>  <MOKAID>
132

>  <Clearance Route>
metabolic

>  <PC1>
2.60514

>  <PC2>
4.05478

$$$$
Coumarin
  -OEChem-08301611272D

 11 12  0     0  0  0  0  0  0999 V2000
    1.7374    1.0057    0.0000 C   0  0  0  0  0  0  0  0  0  0  0  0
    1.7360   -0.0012    0.0000 C   0  0  0  0  0  0  0  0  0  0  0  0
    2.6026   -0.5032    0.0000 C   0  0  0  0  0  0  0  0  0  0  0  0
    3.4761   -0.0036    0.0000 C   0  0  0  0  0  0  0  0  0  0  0  0
    3.4774    1.0034    0.0000 C   0  0  0  0  0  0  0  0  0  0  0  0
    2.6052    1.5109    0.0000 O   0  0  0  0  0  0  0  0  0  0  0  0
    4.3446    1.5014    0.0000 O   0  0  0  0  0  0  0  0  0  0  0  0
    0.8680   -0.4978    0.0000 C   0  0  0  0  0  0  0  0  0  0  0  0
    0.0000    0.0000    0.0000 C   0  0  0  0  0  0  0  0  0  0  0  0
    0.0000    1.0057    0.0000 C   0  0  0  0  0  0  0  0  0  0  0  0
    0.8680    1.5138    0.0000 C   0  0  0  0  0  0  0  0  0  0  0  0
  1  6  1  0  0  0  0
  1 11  2  0  0  0  0
  1  2  1  0  0  0  0
  2  3  1  0  0  0  0
  3  4  2  0  0  0  0
  4  5  1  0  0  0  0
  5  6  1  0  0  0  0
  5  7  2  0  0  0  0
  2  8  2  0  0  0  0
  8  9  1  0  0  0  0
  9 10  2  0  0  0  0
 10 11  1  0  0  0  0
M  END
>  <Name>
Coumarin

>  <CAS #>
91-64-5

>  <human Clearance (mL/min/kg)>
23.6

>  <Primary mechanism (metabolic, biliary or renal)>
metabolic

>  <seqId>
240.0

>  <Code (mechanism and clearance degree index)>
M1

>  < Five M1 and R1 test groups>
M1_4

>  <formamide>
0

>  <prodrug phosphates>
0

>  <VolSurf_V>
359.625

>  <VolSurf_S>
263.026

>  <VolSurf_R>
1.36726

>  <VolSurf_G>
1.11538

>  <VolSurf_IW1>
0.25626

>  <VolSurf_IW2>
0.857998

>  <VolSurf_IW3>
1.88365

>  <VolSurf_IW4>
2.49885

>  <VolSurf_ID1>
0.089693

>  <VolSurf_ID2>
0.112479

>  <VolSurf_ID3>
0.132639

>  <VolSurf_ID4>
0.23003

>  <VolSurf_HL1>
1.55856

>  <VolSurf_HL2>
1.73786

>  <VolSurf_A>
6.28241

>  <VolSurf_CP>
1.34052

>  <VolSurf_POL>
15.696

>  <VolSurf_MW>
146.143

>  <VolSurf_FLEX>
0.0

>  <VolSurf_FLEX_RB>
0.0

>  <VolSurf_NCC>
0.0

>  <VolSurf_LOGP n-Oct>
1.625

>  <VolSurf_LOGP c-Hex>
0.7

>  <VolSurf_PSA>
26.3

>  <VolSurf_HSA>
236.726

>  <VolSurf_PSAR>
0.0999899

>  <VolSurf_PHSAR>
0.111099

>  <VolSurf_LgD5>
1.625

>  <VolSurf_LgD6>
1.625

>  <VolSurf_LgD7>
1.625

>  <VolSurf_LgD7.5>
1.625

>  <VolSurf_LgD8>
1.625

>  <VolSurf_LgD9>
1.625

>  <VolSurf_LgD10>
1.625

>  <VolSurf_AUS7.4>
2.0

>  <VolSurf_%FU4>
100.0

>  <VolSurf_%FU5>
100.0

>  <VolSurf_%FU6>
100.0

>  <VolSurf_%FU7>
100.0

>  <VolSurf_%FU8>
100.0

>  <VolSurf_%FU9>
100.0

>  <VolSurf_%FU10>
100.0

>  <ID>
132

>  <MOKAID>
133

>  <Clearance Route>
metabolic

>  <PC1>
5.08605

>  <PC2>
6.74441

$$$$
Cytarabine
  -OEChem-08301611272D

 17 18  0     1  0  0  0  0  0999 V2000
    0.8675   -1.4975    0.0000 N   0  0  0  0  0  0  0  0  0  0  0  0
    0.8675   -0.4975    0.0000 C   0  0  0  0  0  0  0  0  0  0  0  0
    0.0000    0.0000    0.0000 C   0  0  0  0  0  0  0  0  0  0  0  0
   -0.0000    1.0052    0.0000 C   0  0  0  0  0  0  0  0  0  0  0  0
    0.8675    1.5129    0.0000 N   0  0  0  0  0  0  0  0  0  0  0  0
    1.7350    1.0052    0.0000 C   0  0  0  0  0  0  0  0  0  0  0  0
    1.7350    0.0000    0.0000 N   0  0  0  0  0  0  0  0  0  0  0  0
    2.6025    1.5026    0.0000 O   0  0  0  0  0  0  0  0  0  0  0  0
    0.8675    2.5129    0.0000 C   0  0  1  0  0  0  0  0  0  0  0  0
    1.6784    3.0982    0.0000 C   0  0  2  0  0  0  0  0  0  0  0  0
    1.3693    4.0508    0.0000 C   0  0  1  0  0  0  0  0  0  0  0  0
    0.3676    4.0536    0.0000 C   0  0  1  0  0  0  0  0  0  0  0  0
   -0.2187    4.8638    0.0000 C   0  0  0  0  0  0  0  0  0  0  0  0
   -1.2134    4.7611    0.0000 O   0  0  0  0  0  0  0  0  0  0  0  0
    0.0563    3.0984    0.0000 O   0  0  0  0  0  0  0  0  0  0  0  0
    1.9584    4.8589    0.0000 O   0  0  0  0  0  0  0  0  0  0  0  0
    2.6289    2.7875    0.0000 O   0  0  0  0  0  0  0  0  0  0  0  0
  1  2  1  0  0  0  0
  2  7  2  0  0  0  0
  2  3  1  0  0  0  0
  3  4  2  0  0  0  0
  4  5  1  0  0  0  0
  5  6  1  0  0  0  0
  6  7  1  0  0  0  0
  6  8  2  0  0  0  0
  9  5  1  6  0  0  0
  9 15  1  0  0  0  0
  9 10  1  0  0  0  0
 10 11  1  0  0  0  0
 11 12  1  0  0  0  0
 12 13  1  6  0  0  0
 13 14  1  0  0  0  0
 12 15  1  0  0  0  0
 11 16  1  1  0  0  0
 10 17  1  6  0  0  0
M  END
>  <Name>
Cytarabine

>  <CAS #>
147-94-4

>  <human Clearance (mL/min/kg)>
41.67

>  <Primary mechanism (metabolic, biliary or renal)>
metabolic

>  <seqId>
246.0

>  <Code (mechanism and clearance degree index)>
M1

>  < Five M1 and R1 test groups>
M1_1

>  <formamide>
0

>  <prodrug phosphates>
0

>  <VolSurf_V>
467.25

>  <VolSurf_S>
342.941

>  <VolSurf_R>
1.36248

>  <VolSurf_G>
1.27807

>  <VolSurf_IW1>
0.0758726

>  <VolSurf_IW2>
0.13962

>  <VolSurf_IW3>
0.327164

>  <VolSurf_IW4>
0.786511

>  <VolSurf_ID1>
0.172366

>  <VolSurf_ID2>
0.311844

>  <VolSurf_ID3>
0.45042

>  <VolSurf_ID4>
0.547973

>  <VolSurf_HL1>
13.5752

>  <VolSurf_HL2>
11.1806

>  <VolSurf_A>
4.66302

>  <VolSurf_CP>
0.0840626

>  <VolSurf_POL>
21.78

>  <VolSurf_MW>
243.217

>  <VolSurf_FLEX>
0.49111

>  <VolSurf_FLEX_RB>
0.0818517

>  <VolSurf_NCC>
0.0

>  <VolSurf_LOGP n-Oct>
-2.966

>  <VolSurf_LOGP c-Hex>
-7.253

>  <VolSurf_PSA>
131.95

>  <VolSurf_HSA>
210.991

>  <VolSurf_PSAR>
0.38476

>  <VolSurf_PHSAR>
0.625382

>  <VolSurf_LgD5>
-3.01647

>  <VolSurf_LgD6>
-2.97132

>  <VolSurf_LgD7>
-2.96654

>  <VolSurf_LgD7.5>
-2.96618

>  <VolSurf_LgD8>
-2.96609

>  <VolSurf_LgD9>
-2.96635

>  <VolSurf_LgD10>
-2.96949

>  <VolSurf_AUS7.4>
2.0

>  <VolSurf_%FU4>
44.7898

>  <VolSurf_%FU5>
89.0262

>  <VolSurf_%FU6>
98.7823

>  <VolSurf_%FU7>
99.8761

>  <VolSurf_%FU8>
99.9796

>  <VolSurf_%FU9>
99.9183

>  <VolSurf_%FU10>
99.1984

>  <ID>
133

>  <MOKAID>
134

>  <Clearance Route>
uncertain

>  <PC1>
-1.85191

>  <PC2>
5.0068

$$$$
Dabigatran
  -OEChem-08301611272D

 35 38  0     0  0  0  0  0  0999 V2000
    9.2871   -0.5097    0.0000 N   0  0  0  0  0  0  0  0  0  0  0  0
    8.7909    0.3585    0.0000 C   0  0  0  0  0  0  0  0  0  0  0  0
    7.7909    0.3628    0.0000 C   0  0  0  0  0  0  0  0  0  0  0  0
    7.2871   -0.5070    0.0000 C   0  0  0  0  0  0  0  0  0  0  0  0
    6.2871   -0.5027    0.0000 C   0  0  0  0  0  0  0  0  0  0  0  0
    5.7857    0.3626    0.0000 C   0  0  0  0  0  0  0  0  0  0  0  0
    6.2896    1.2324    0.0000 C   0  0  0  0  0  0  0  0  0  0  0  0
    7.2947    1.2369    0.0000 C   0  0  0  0  0  0  0  0  0  0  0  0
    4.7857    0.3625    0.0000 N   0  0  0  0  0  0  0  0  0  0  0  0
    4.2858   -0.5035    0.0000 C   0  0  0  0  0  0  0  0  0  0  0  0
    3.2858   -0.5036    0.0000 C   0  0  0  0  0  0  0  0  0  0  0  0
    2.6938    0.3110    0.0000 N   0  0  0  0  0  0  0  0  0  0  0  0
    1.7360   -0.0000    0.0000 C   0  0  0  0  0  0  0  0  0  0  0  0
    0.8680    0.5079    0.0000 C   0  0  0  0  0  0  0  0  0  0  0  0
    0.0000    0.0000    0.0000 C   0  0  0  0  0  0  0  0  0  0  0  0
   -0.0000   -1.0058    0.0000 C   0  0  0  0  0  0  0  0  0  0  0  0
    0.8680   -1.5037    0.0000 C   0  0  0  0  0  0  0  0  0  0  0  0
    1.7360   -1.0071    0.0000 C   0  0  0  0  0  0  0  0  0  0  0  0
    2.6938   -1.3184    0.0000 N   0  0  0  0  0  0  0  0  0  0  0  0
    3.0028   -2.2695    0.0000 C   0  0  0  0  0  0  0  0  0  0  0  0
   -0.8675    0.4975    0.0000 C   0  0  0  0  0  0  0  0  0  0  0  0
   -1.7320   -0.0050    0.0000 N   0  0  0  0  0  0  0  0  0  0  0  0
   -1.7291   -1.0050    0.0000 C   0  0  0  0  0  0  0  0  0  0  0  0
   -0.8617   -1.5025    0.0000 C   0  0  0  0  0  0  0  0  0  0  0  0
   -0.8587   -2.5025    0.0000 C   0  0  0  0  0  0  0  0  0  0  0  0
   -1.7233   -3.0050    0.0000 O   0  0  0  0  0  0  0  0  0  0  0  0
    0.0087   -3.0000    0.0000 O   0  0  0  0  0  0  0  0  0  0  0  0
   -2.5995    0.4924    0.0000 C   0  0  0  0  0  0  0  0  0  0  0  0
   -3.4671   -0.0153    0.0000 C   0  0  0  0  0  0  0  0  0  0  0  0
   -4.3346    0.4822    0.0000 C   0  0  0  0  0  0  0  0  0  0  0  0
   -4.3434    1.4822    0.0000 C   0  0  0  0  0  0  0  0  0  0  0  0
   -3.4758    1.9899    0.0000 C   0  0  0  0  0  0  0  0  0  0  0  0
   -2.5995    1.4976    0.0000 N   0  0  0  0  0  0  0  0  0  0  0  0
   -0.8704    1.4975    0.0000 O   0  0  0  0  0  0  0  0  0  0  0  0
    9.2947    1.2223    0.0000 N   0  0  0  0  0  0  0  0  0  0  0  0
  1  2  2  3  0  0  0
  2  3  1  0  0  0  0
  3  8  2  0  0  0  0
  3  4  1  0  0  0  0
  4  5  2  0  0  0  0
  5  6  1  0  0  0  0
  6  7  2  0  0  0  0
  7  8  1  0  0  0  0
  6  9  1  0  0  0  0
  9 10  1  0  0  0  0
 10 11  1  0  0  0  0
 11 19  1  0  0  0  0
 11 12  2  0  0  0  0
 12 13  1  0  0  0  0
 13 18  2  0  0  0  0
 13 14  1  0  0  0  0
 14 15  2  0  0  0  0
 15 16  1  0  0  0  0
 16 17  2  0  0  0  0
 17 18  1  0  0  0  0
 18 19  1  0  0  0  0
 19 20  1  0  0  0  0
 15 21  1  0  0  0  0
 21 22  1  0  0  0  0
 22 23  1  0  0  0  0
 23 24  1  0  0  0  0
 24 25  1  0  0  0  0
 25 26  2  0  0  0  0
 25 27  1  0  0  0  0
 22 28  1  0  0  0  0
 28 33  2  0  0  0  0
 28 29  1  0  0  0  0
 29 30  2  0  0  0  0
 30 31  1  0  0  0  0
 31 32  2  0  0  0  0
 32 33  1  0  0  0  0
 21 34  2  0  0  0  0
  2 35  1  0  0  0  0
M  END
>  <Name>
Dabigatran

>  <CAS #>
211914-51-1

>  <human Clearance (mL/min/kg)>
1.93

>  <Primary mechanism (metabolic, biliary or renal)>
renal

>  <seqId>
247.0

>  <Code (mechanism and clearance degree index)>
R1

>  < Five M1 and R1 test groups>
R1_5

>  <formamide>
0

>  <prodrug phosphates>
0

>  <VolSurf_V>
1015.25

>  <VolSurf_S>
684.13

>  <VolSurf_R>
1.484

>  <VolSurf_G>
1.65733

>  <VolSurf_IW1>
0.040568

>  <VolSurf_IW2>
0.119551

>  <VolSurf_IW3>
0.329304

>  <VolSurf_IW4>
0.599862

>  <VolSurf_ID1>
0.0253256

>  <VolSurf_ID2>
0.0630592

>  <VolSurf_ID3>
0.0812112

>  <VolSurf_ID4>
0.124888

>  <VolSurf_HL1>
2.65845

>  <VolSurf_HL2>
2.17956

>  <VolSurf_A>
4.08917

>  <VolSurf_CP>
0.963245

>  <VolSurf_POL>
50.633

>  <VolSurf_MW>
471.511

>  <VolSurf_FLEX>
3.62167

>  <VolSurf_FLEX_RB>
0.301806

>  <VolSurf_NCC>
2.0

>  <VolSurf_LOGP n-Oct>
0.245

>  <VolSurf_LOGP c-Hex>
-1.971

>  <VolSurf_PSA>
158.54

>  <VolSurf_HSA>
525.59

>  <VolSurf_PSAR>
0.23174

>  <VolSurf_PHSAR>
0.301642

>  <VolSurf_LgD5>
-2.9159

>  <VolSurf_LgD6>
-1.95841

>  <VolSurf_LgD7>
-1.25164

>  <VolSurf_LgD7.5>
-1.09242

>  <VolSurf_LgD8>
-1.03486

>  <VolSurf_LgD9>
-1.11306

>  <VolSurf_LgD10>
-1.61144

>  <VolSurf_AUS7.4>
0.0

>  <VolSurf_%FU4>
0.0

>  <VolSurf_%FU5>
0.0

>  <VolSurf_%FU6>
0.0

>  <VolSurf_%FU7>
0.0

>  <VolSurf_%FU8>
0.0

>  <VolSurf_%FU9>
0.0

>  <VolSurf_%FU10>
0.0

>  <ID>
134

>  <MOKAID>
135

>  <Clearance Route>
possible billary

>  <PC1>
-2.03368

>  <PC2>
-2.36826

$$$$
Dalfampridine
  -OEChem-08301611272D

  7  7  0     0  0  0  0  0  0999 V2000
    0.0000    0.0000    0.0000 C   0  0  0  0  0  0  0  0  0  0  0  0
   -0.8675    0.4975    0.0000 C   0  0  0  0  0  0  0  0  0  0  0  0
   -0.8675    1.5027    0.0000 C   0  0  0  0  0  0  0  0  0  0  0  0
    0.0000    2.0104    0.0000 N   0  0  0  0  0  0  0  0  0  0  0  0
    0.8675    1.5027    0.0000 C   0  0  0  0  0  0  0  0  0  0  0  0
    0.8675    0.4975    0.0000 C   0  0  0  0  0  0  0  0  0  0  0  0
   -0.0000   -1.0000    0.0000 N   0  0  0  0  0  0  0  0  0  0  0  0
  1  6  2  0  0  0  0
  1  2  1  0  0  0  0
  2  3  2  0  0  0  0
  3  4  1  0  0  0  0
  4  5  2  0  0  0  0
  5  6  1  0  0  0  0
  1  7  1  0  0  0  0
M  END
>  <Name>
Dalfampridine

>  <CAS #>
504-24-5

>  <human Clearance (mL/min/kg)>
9.3

>  <Primary mechanism (metabolic, biliary or renal)>
renal

>  <seqId>
250.0

>  <Code (mechanism and clearance degree index)>
R1

>  < Five M1 and R1 test groups>
R1_5

>  <formamide>
0

>  <prodrug phosphates>
0

>  <VolSurf_V>
265.0

>  <VolSurf_S>
210.865

>  <VolSurf_R>
1.25673

>  <VolSurf_G>
1.08651

>  <VolSurf_IW1>
0.0353957

>  <VolSurf_IW2>
0.142434

>  <VolSurf_IW3>
0.207955

>  <VolSurf_IW4>
2.26756

>  <VolSurf_ID1>
0.0278179

>  <VolSurf_ID2>
0.0240043

>  <VolSurf_ID3>
0.0490026

>  <VolSurf_ID4>
0.14608

>  <VolSurf_HL1>
0.498008

>  <VolSurf_HL2>
0.258278

>  <VolSurf_A>
0.617869

>  <VolSurf_CP>
20.3942

>  <VolSurf_POL>
10.659

>  <VolSurf_MW>
95.1225

>  <VolSurf_FLEX>
5.61987E-7

>  <VolSurf_FLEX_RB>
5.61987E-7

>  <VolSurf_NCC>
1.0

>  <VolSurf_LOGP n-Oct>
-0.116

>  <VolSurf_LOGP c-Hex>
-2.937

>  <VolSurf_PSA>
40.65

>  <VolSurf_HSA>
170.215

>  <VolSurf_PSAR>
0.192778

>  <VolSurf_PHSAR>
0.238816

>  <VolSurf_LgD5>
-3.38593

>  <VolSurf_LgD6>
-2.71447

>  <VolSurf_LgD7>
-1.77491

>  <VolSurf_LgD7.5>
-1.29896

>  <VolSurf_LgD8>
-0.857683

>  <VolSurf_LgD9>
-0.278043

>  <VolSurf_LgD10>
-0.135212

>  <VolSurf_AUS7.4>
0.775216

>  <VolSurf_%FU4>
0.00221007

>  <VolSurf_%FU5>
0.0220963

>  <VolSurf_%FU6>
0.220525

>  <VolSurf_%FU7>
2.16233

>  <VolSurf_%FU8>
18.1007

>  <VolSurf_%FU9>
68.8485

>  <VolSurf_%FU10>
95.6712

>  <ID>
135

>  <MOKAID>
136

>  <Clearance Route>
uncertain

>  <PC1>
0.9515040000000001

>  <PC2>
5.0826199999999995

$$$$
Dalfopristin
  -OEChem-08301611272D

 49 51  0     1  0  0  0  0  0999 V2000
   -3.9337   -8.7047    0.0000 C   0  0  0  0  0  0  0  0  0  0  0  0
   -4.1988   -7.7404    0.0000 C   0  0  0  0  0  0  0  0  0  0  0  0
   -5.1664   -7.4879    0.0000 N   0  0  0  0  0  0  0  0  0  0  0  0
   -5.8689   -8.1996    0.0000 C   0  0  0  0  0  0  0  0  0  0  0  0
   -5.6038   -9.1639    0.0000 C   0  0  0  0  0  0  0  0  0  0  0  0
   -5.4316   -6.5237    0.0000 C   0  0  0  0  0  0  0  0  0  0  0  0
   -6.3991   -6.2712    0.0000 C   0  0  0  0  0  0  0  0  0  0  0  0
   -6.6643   -5.3070    0.0000 S   0  0  0  0  0  0  0  0  0  0  0  0
   -7.6285   -5.5721    0.0000 O   0  0  0  0  0  0  0  0  0  0  0  0
   -5.7000   -5.0419    0.0000 O   0  0  0  0  0  0  0  0  0  0  0  0
   -7.1282   -3.6196    0.0000 C   0  0  2  0  0  0  0  0  0  0  0  0
   -8.0601   -3.2569    0.0000 C   0  0  0  0  0  0  0  0  0  0  0  0
   -8.0601   -2.2399    0.0000 C   0  0  0  0  0  0  0  0  0  0  0  0
   -7.0873   -1.9614    0.0000 N   0  0  0  0  0  0  0  0  0  0  0  0
   -6.5048   -2.8213    0.0000 C   0  0  1  0  0  0  0  0  0  0  0  0
   -5.6680   -3.4385    0.0000 C   0  0  0  0  0  0  0  0  0  0  0  0
   -6.1896   -4.2917    0.0000 O   0  0  0  0  0  0  0  0  0  0  0  0
   -4.7403   -3.9005    0.0000 O   0  0  0  0  0  0  0  0  0  0  0  0
   -3.7176   -4.0394    0.0000 C   0  0  1  0  0  0  0  0  0  0  0  0
   -3.7139   -5.7894    0.0000 C   0  0  0  0  0  0  0  0  0  0  0  0
   -2.8468   -6.2876    0.0000 C   0  0  0  0  0  0  0  0  0  0  0  0
   -4.5789   -6.2912    0.0000 C   0  0  0  0  0  0  0  0  0  0  0  0
   -2.7014   -3.8970    0.0000 C   0  0  2  0  0  0  0  0  0  0  0  0
   -2.4285   -4.8591    0.0000 C   0  0  0  0  0  0  0  0  0  0  0  0
   -1.7632   -3.4853    0.0000 C   0  0  0  0  0  0  0  0  0  0  0  0
   -0.9723   -2.8336    0.0000 C   0  0  0  0  0  0  0  0  0  0  0  0
   -0.3884   -1.9894    0.0000 C   0  0  0  0  0  0  0  0  0  0  0  0
    0.5039   -2.4409    0.0000 O   0  0  0  0  0  0  0  0  0  0  0  0
   -0.0567   -1.0263    0.0000 N   0  0  0  0  0  0  0  0  0  0  0  0
    0.0000    0.0000    0.0000 C   0  0  0  0  0  0  0  0  0  0  0  0
   -0.2225    0.9878    0.0000 C   0  0  0  0  0  0  0  0  0  0  0  0
   -0.7101    1.8827    0.0000 C   0  0  0  0  0  0  0  0  0  0  0  0
   -1.4277    2.6109    0.0000 C   0  0  0  0  0  0  0  0  0  0  0  0
   -2.3243    3.1152    0.0000 C   0  0  0  0  0  0  0  0  0  0  0  0
   -3.3526    3.3464    0.0000 C   0  0  1  0  0  0  0  0  0  0  0  0
   -3.2739    4.3433    0.0000 O   0  0  0  0  0  0  0  0  0  0  0  0
   -4.4252    3.2781    0.0000 C   0  0  0  0  0  0  0  0  0  0  0  0
   -5.4457    2.9507    0.0000 C   0  0  0  0  0  0  0  0  0  0  0  0
   -5.8577    3.8619    0.0000 O   0  0  0  0  0  0  0  0  0  0  0  0
   -6.3628    2.4023    0.0000 C   0  0  0  0  0  0  0  0  0  0  0  0
   -7.1332    1.7008    0.0000 C   0  0  0  0  0  0  0  0  0  0  0  0
   -8.1452    1.5754    0.0000 O   0  0  0  0  0  0  0  0  0  0  0  0
   -8.3386    0.5741    0.0000 C   0  0  0  0  0  0  0  0  0  0  0  0
   -7.4269    0.0822    0.0000 C   0  0  0  0  0  0  0  0  0  0  0  0
   -6.7010    0.7771    0.0000 N   0  0  0  0  0  0  0  0  0  0  0  0
   -7.3498   -0.9500    0.0000 C   0  0  0  0  0  0  0  0  0  0  0  0
   -8.3363   -1.1135    0.0000 O   0  0  0  0  0  0  0  0  0  0  0  0
   -0.8205    3.4054    0.0000 C   0  0  0  0  0  0  0  0  0  0  0  0
   -6.3691   -3.8120    0.0000 H   0  0  0  0  0  0  0  0  0  0  0  0
  1  2  1  0  0  0  0
  2  3  1  0  0  0  0
  3  4  1  0  0  0  0
  4  5  1  0  0  0  0
  3  6  1  0  0  0  0
  6  7  1  0  0  0  0
  7  8  1  0  0  0  0
  8  9  2  0  0  0  0
  8 10  2  0  0  0  0
 11  8  1  6  0  0  0
 11 15  1  0  0  0  0
 11 12  1  0  0  0  0
 12 13  1  0  0  0  0
 13 14  1  0  0  0  0
 14 46  1  0  0  0  0
 14 15  1  0  0  0  0
 15 16  1  0  0  0  0
 16 17  2  0  0  0  0
 16 18  1  0  0  0  0
 18 19  1  0  0  0  0
 19 20  1  6  0  0  0
 20 21  1  0  0  0  0
 20 22  1  0  0  0  0
 19 23  1  0  0  0  0
 23 24  1  1  0  0  0
 23 25  1  0  0  0  0
 25 26  2  0  0  0  0
 26 27  1  0  0  0  0
 27 28  2  0  0  0  0
 27 29  1  0  0  0  0
 29 30  1  0  0  0  0
 30 31  1  0  0  0  0
 31 32  2  0  0  0  0
 32 33  1  0  0  0  0
 33 34  2  0  0  0  0
 34 35  1  0  0  0  0
 35 36  1  6  0  0  0
 35 37  1  0  0  0  0
 37 38  1  0  0  0  0
 38 39  2  0  0  0  0
 38 40  1  0  0  0  0
 40 41  1  0  0  0  0
 41 45  2  0  0  0  0
 41 42  1  0  0  0  0
 42 43  1  0  0  0  0
 43 44  2  0  0  0  0
 44 45  1  0  0  0  0
 44 46  1  0  0  0  0
 46 47  2  0  0  0  0
 33 48  1  0  0  0  0
 15 49  1  6  0  0  0
M  END
>  <Name>
Dalfopristin

>  <CAS #>
112362-50-2

>  <human Clearance (mL/min/kg)>
16.0

>  <Primary mechanism (metabolic, biliary or renal)>
hydrolysis, metabolism

>  <seqId>
251.0

>  <Code (mechanism and clearance degree index)>
M1

>  < Five M1 and R1 test groups>
M1_4

>  <formamide>
0

>  <prodrug phosphates>
0

>  <VolSurf_V>
1418.12

>  <VolSurf_S>
866.769

>  <VolSurf_R>
1.63611

>  <VolSurf_G>
1.69205

>  <VolSurf_IW1>
0.0447392

>  <VolSurf_IW2>
0.0954154

>  <VolSurf_IW3>
0.210215

>  <VolSurf_IW4>
0.311329

>  <VolSurf_ID1>
0.0164343

>  <VolSurf_ID2>
0.0614609

>  <VolSurf_ID3>
0.136325

>  <VolSurf_ID4>
0.160426

>  <VolSurf_HL1>
7.32377

>  <VolSurf_HL2>
7.10256

>  <VolSurf_A>
2.01479

>  <VolSurf_CP>
0.23092

>  <VolSurf_POL>
70.6061

>  <VolSurf_MW>
690.847

>  <VolSurf_FLEX>
1.54437

>  <VolSurf_FLEX_RB>
0.110312

>  <VolSurf_NCC>
0.0

>  <VolSurf_LOGP n-Oct>
0.597

>  <VolSurf_LOGP c-Hex>
-4.268

>  <VolSurf_PSA>
183.952

>  <VolSurf_HSA>
682.816

>  <VolSurf_PSAR>
0.212228

>  <VolSurf_PHSAR>
0.269403

>  <VolSurf_LgD5>
0.564479

>  <VolSurf_LgD6>
0.593636

>  <VolSurf_LgD7>
0.596661

>  <VolSurf_LgD7.5>
0.596888

>  <VolSurf_LgD8>
0.596951

>  <VolSurf_LgD9>
0.596843

>  <VolSurf_LgD10>
0.595471

>  <VolSurf_AUS7.4>
2.0

>  <VolSurf_%FU4>
56.248

>  <VolSurf_%FU5>
92.783

>  <VolSurf_%FU6>
99.2281

>  <VolSurf_%FU7>
99.9219

>  <VolSurf_%FU8>
99.9887

>  <VolSurf_%FU9>
99.964

>  <VolSurf_%FU10>
99.6483

>  <ID>
136

>  <MOKAID>
137

>  <Clearance Route>
possible billary

>  <PC1>
1.18315

>  <PC2>
-4.00957

$$$$
Daptomycin
  -OEChem-08301611272D

115118  0     1  0  0  0  0  0999 V2000
    9.9522    2.5712    0.0000 C   0  0  0  0  0  0  0  0  0  0  0  0
    9.2830    1.8281    0.0000 C   0  0  0  0  0  0  0  0  0  0  0  0
    9.5920    0.8770    0.0000 C   0  0  0  0  0  0  0  0  0  0  0  0
    8.9228    0.1339    0.0000 C   0  0  0  0  0  0  0  0  0  0  0  0
    9.2318   -0.8171    0.0000 C   0  0  0  0  0  0  0  0  0  0  0  0
    8.5626   -1.5603    0.0000 C   0  0  0  0  0  0  0  0  0  0  0  0
    7.5845   -1.3523    0.0000 C   0  0  0  0  0  0  0  0  0  0  0  0
    6.9153   -2.0954    0.0000 C   0  0  0  0  0  0  0  0  0  0  0  0
    5.9372   -1.8874    0.0000 C   0  0  0  0  0  0  0  0  0  0  0  0
    5.6282   -0.9364    0.0000 C   0  0  0  0  0  0  0  0  0  0  0  0
    6.2974   -0.1933    0.0000 O   0  0  0  0  0  0  0  0  0  0  0  0
    4.6501   -0.7284    0.0000 N   0  0  0  0  0  0  0  0  0  0  0  0
    3.9809   -1.4715    0.0000 C   0  0  1  0  0  0  0  0  0  0  0  0
    3.0028   -1.2636    0.0000 C   0  0  0  0  0  0  0  0  0  0  0  0
    2.6938   -0.3125    0.0000 C   0  0  0  0  0  0  0  0  0  0  0  0
    3.2858    0.5023    0.0000 C   0  0  0  0  0  0  0  0  0  0  0  0
    2.6938    1.3169    0.0000 N   0  0  0  0  0  0  0  0  0  0  0  0
    1.7360    1.0058    0.0000 C   0  0  0  0  0  0  0  0  0  0  0  0
    0.8680    1.5138    0.0000 C   0  0  0  0  0  0  0  0  0  0  0  0
    0.0000    1.0058    0.0000 C   0  0  0  0  0  0  0  0  0  0  0  0
    0.0000    0.0000    0.0000 C   0  0  0  0  0  0  0  0  0  0  0  0
    0.8680   -0.4978    0.0000 C   0  0  0  0  0  0  0  0  0  0  0  0
    1.7360   -0.0012    0.0000 C   0  0  0  0  0  0  0  0  0  0  0  0
    4.2899   -2.4226    0.0000 C   0  0  0  0  0  0  0  0  0  0  0  0
    5.2680   -2.6306    0.0000 O   0  0  0  0  0  0  0  0  0  0  0  0
    3.6207   -3.1657    0.0000 N   0  0  0  0  0  0  0  0  0  0  0  0
    3.9297   -4.1168    0.0000 C   0  0  2  0  0  0  0  0  0  0  0  0
    3.2605   -4.8599    0.0000 C   0  0  0  0  0  0  0  0  0  0  0  0
    3.5695   -5.8110    0.0000 C   0  0  0  0  0  0  0  0  0  0  0  0
    4.5476   -6.0189    0.0000 O   0  0  0  0  0  0  0  0  0  0  0  0
    2.9003   -6.5541    0.0000 N   0  0  0  0  0  0  0  0  0  0  0  0
    4.9078   -4.3247    0.0000 C   0  0  0  0  0  0  0  0  0  0  0  0
    5.2168   -5.2758    0.0000 O   0  0  0  0  0  0  0  0  0  0  0  0
    5.5770   -3.5816    0.0000 N   0  0  0  0  0  0  0  0  0  0  0  0
    6.5551   -3.7896    0.0000 C   0  0  1  0  0  0  0  0  0  0  0  0
    7.2243   -3.0465    0.0000 C   0  0  0  0  0  0  0  0  0  0  0  0
    8.2024   -3.2544    0.0000 C   0  0  0  0  0  0  0  0  0  0  0  0
    8.5114   -4.2055    0.0000 O   0  0  0  0  0  0  0  0  0  0  0  0
    8.8716   -2.5113    0.0000 O   0  0  0  0  0  0  0  0  0  0  0  0
    6.8641   -4.7407    0.0000 C   0  0  0  0  0  0  0  0  0  0  0  0
    7.8422   -4.9486    0.0000 O   0  0  0  0  0  0  0  0  0  0  0  0
    6.1949   -5.4838    0.0000 N   0  0  0  0  0  0  0  0  0  0  0  0
    6.5039   -6.4348    0.0000 C   0  0  1  0  0  0  0  0  0  0  0  0
    5.8195   -7.1971    0.0000 C   0  0  1  0  0  0  0  0  0  0  0  0
    6.3658   -8.8597    0.0000 C   0  0  0  0  0  0  0  0  0  0  0  0
    4.8247   -6.9910    0.0000 O   0  0  0  0  0  0  0  0  0  0  0  0
    4.1417   -7.7439    0.0000 C   0  0  0  0  0  0  0  0  0  0  0  0
    3.1644   -7.5322    0.0000 O   0  0  0  0  0  0  0  0  0  0  0  0
    4.4547   -8.7204    0.0000 C   0  0  2  0  0  0  0  0  0  0  0  0
    5.4333   -8.9261    0.0000 C   0  0  0  0  0  0  0  0  0  0  0  0
    6.1008   -8.1814    0.0000 C   0  0  0  0  0  0  0  0  0  0  0  0
    5.7896   -7.2311    0.0000 O   0  0  0  0  0  0  0  0  0  0  0  0
    7.0794   -8.3871    0.0000 C   0  0  0  0  0  0  0  0  0  0  0  0
    7.7480   -7.6434    0.0000 C   0  0  0  0  0  0  0  0  0  0  0  0
    8.7275   -7.8449    0.0000 C   0  0  0  0  0  0  0  0  0  0  0  0
    9.0417   -8.7997    0.0000 C   0  0  0  0  0  0  0  0  0  0  0  0
    8.3763   -9.5531    0.0000 C   0  0  0  0  0  0  0  0  0  0  0  0
    7.3936   -9.3420    0.0000 C   0  0  0  0  0  0  0  0  0  0  0  0
    6.2236  -10.6434    0.0000 N   0  0  0  0  0  0  0  0  0  0  0  0
    3.7728   -9.4908    0.0000 N   0  0  0  0  0  0  0  0  0  0  0  0
    4.0941  -10.4512    0.0000 C   0  0  0  0  0  0  0  0  0  0  0  0
    5.0728  -10.6568    0.0000 O   0  0  0  0  0  0  0  0  0  0  0  0
    3.4111  -11.2040    0.0000 C   0  0  1  0  0  0  0  0  0  0  0  0
    3.7241  -12.1807    0.0000 N   0  0  0  0  0  0  0  0  0  0  0  0
    4.7216  -12.3948    0.0000 C   0  0  0  0  0  0  0  0  0  0  0  0
    5.0278  -13.3467    0.0000 O   0  0  0  0  0  0  0  0  0  0  0  0
    5.4046  -11.6421    0.0000 C   0  0  1  0  0  0  0  0  0  0  0  0
    5.0964  -10.6907    0.0000 C   0  0  0  0  0  0  0  0  0  0  0  0
    5.7662   -9.9482    0.0000 O   0  0  0  0  0  0  0  0  0  0  0  0
    6.4102  -11.8535    0.0000 N   0  0  0  0  0  0  0  0  0  0  0  0
    7.0972  -11.0996    0.0000 C   0  0  0  0  0  0  0  0  0  0  0  0
    6.7910  -10.1476    0.0000 O   0  0  0  0  0  0  0  0  0  0  0  0
    8.0987  -11.3123    0.0000 C   0  0  0  0  0  0  0  0  0  0  0  0
    8.7818  -10.5596    0.0000 N   0  0  0  0  0  0  0  0  0  0  0  0
    9.7791  -10.7737    0.0000 C   0  0  0  0  0  0  0  0  0  0  0  0
   10.0843  -11.7260    0.0000 O   0  0  0  0  0  0  0  0  0  0  0  0
   10.4663  -10.0197    0.0000 C   0  0  2  0  0  0  0  0  0  0  0  0
    9.9287   -8.3543    0.0000 C   0  0  0  0  0  0  0  0  0  0  0  0
   10.5993   -7.6125    0.0000 C   0  0  0  0  0  0  0  0  0  0  0  0
   11.5771   -7.8223    0.0000 O   0  0  0  0  0  0  0  0  0  0  0  0
   10.2922   -6.6608    0.0000 O   0  0  0  0  0  0  0  0  0  0  0  0
   11.4717  -10.2312    0.0000 N   0  0  0  0  0  0  0  0  0  0  0  0
   12.1548   -9.4785    0.0000 C   0  0  0  0  0  0  0  0  0  0  0  0
   13.1321   -9.6902    0.0000 O   0  0  0  0  0  0  0  0  0  0  0  0
   11.8417   -8.5018    0.0000 C   0  0  1  0  0  0  0  0  0  0  0  0
   10.8648   -8.2881    0.0000 C   0  0  0  0  0  0  0  0  0  0  0  0
   12.5329   -7.7464    0.0000 N   0  0  0  0  0  0  0  0  0  0  0  0
   12.2238   -6.7820    0.0000 C   0  0  0  0  0  0  0  0  0  0  0  0
   11.2456   -6.5746    0.0000 O   0  0  0  0  0  0  0  0  0  0  0  0
   12.9070   -6.0156    0.0000 C   0  0  3  0  0  0  0  0  0  0  0  0
   13.8873   -6.2133    0.0000 C   0  0  0  0  0  0  0  0  0  0  0  0
   14.2062   -7.1611    0.0000 C   0  0  0  0  0  0  0  0  0  0  0  0
   13.5449   -7.9112    0.0000 O   0  0  0  0  0  0  0  0  0  0  0  0
   15.1865   -7.3588    0.0000 O   0  0  0  0  0  0  0  0  0  0  0  0
   12.5580   -4.9969    0.0000 N   0  0  0  0  0  0  0  0  0  0  0  0
   11.6449   -3.7999    0.0000 C   0  0  0  0  0  0  0  0  0  0  0  0
   12.1682   -2.9478    0.0000 O   0  0  0  0  0  0  0  0  0  0  0  0
   10.6053   -3.6082    0.0000 C   0  0  2  0  0  0  0  0  0  0  0  0
   10.3788   -2.6342    0.0000 C   0  0  0  0  0  0  0  0  0  0  0  0
   11.1092   -1.9511    0.0000 C   0  0  0  0  0  0  0  0  0  0  0  0
   10.8827   -0.9771    0.0000 C   0  0  0  0  0  0  0  0  0  0  0  0
   11.6131   -0.2940    0.0000 N   0  0  0  0  0  0  0  0  0  0  0  0
    9.5545   -4.3892    0.0000 N   0  0  0  0  0  0  0  0  0  0  0  0
    9.8758   -5.3361    0.0000 C   0  0  0  0  0  0  0  0  0  0  0  0
   10.8555   -5.5369    0.0000 O   0  0  0  0  0  0  0  0  0  0  0  0
    9.1915   -6.0984    0.0000 C   0  0  0  0  0  0  0  0  0  0  0  0
    8.1899   -5.8854    0.0000 N   0  0  0  0  0  0  0  0  0  0  0  0
    7.5109   -6.6505    0.0000 C   0  0  0  0  0  0  0  0  0  0  0  0
    8.0564   -8.3133    0.0000 O   0  0  0  0  0  0  0  0  0  0  0  0
    2.4338  -10.9923    0.0000 C   0  0  2  0  0  0  0  0  0  0  0  0
    1.7618  -11.7329    0.0000 C   0  0  0  0  0  0  0  0  0  0  0  0
    2.1285  -10.0401    0.0000 C   0  0  0  0  0  0  0  0  0  0  0  0
    1.1511   -9.8284    0.0000 C   0  0  0  0  0  0  0  0  0  0  0  0
    0.4791  -10.5689    0.0000 O   0  0  0  0  0  0  0  0  0  0  0  0
    0.8458   -8.8761    0.0000 O   0  0  0  0  0  0  0  0  0  0  0  0
  1  2  1  0  0  0  0
  2  3  1  0  0  0  0
  3  4  1  0  0  0  0
  4  5  1  0  0  0  0
  5  6  1  0  0  0  0
  6  7  1  0  0  0  0
  7  8  1  0  0  0  0
  8  9  1  0  0  0  0
  9 10  1  0  0  0  0
 10 11  2  0  0  0  0
 10 12  1  0  0  0  0
 12 13  1  0  0  0  0
 13 14  1  0  0  0  0
 14 15  1  0  0  0  0
 15 23  1  0  0  0  0
 15 16  2  0  0  0  0
 16 17  1  0  0  0  0
 17 18  1  0  0  0  0
 18 23  2  0  0  0  0
 18 19  1  0  0  0  0
 19 20  2  0  0  0  0
 20 21  1  0  0  0  0
 21 22  2  0  0  0  0
 22 23  1  0  0  0  0
 13 24  1  6  0  0  0
 24 25  2  0  0  0  0
 24 26  1  0  0  0  0
 26 27  1  0  0  0  0
 27 28  1  0  0  0  0
 28 29  1  0  0  0  0
 29 30  2  0  0  0  0
 29 31  1  0  0  0  0
 27 32  1  1  0  0  0
 32 33  2  0  0  0  0
 32 34  1  0  0  0  0
 34 35  1  0  0  0  0
 35 36  1  1  0  0  0
 36 37  1  0  0  0  0
 37 38  2  0  0  0  0
 37 39  1  0  0  0  0
 35 40  1  0  0  0  0
 40 41  2  0  0  0  0
 40 42  1  0  0  0  0
 43 42  1  6  0  0  0
 43108  1  0  0  0  0
 43 44  1  0  0  0  0
 44 45  1  1  0  0  0
 44 46  1  0  0  0  0
 46 47  1  0  0  0  0
 47 48  2  0  0  0  0
 47 49  1  0  0  0  0
 49 50  1  6  0  0  0
 50 51  1  0  0  0  0
 51 52  2  0  0  0  0
 51 53  1  0  0  0  0
 53 58  2  0  0  0  0
 53 54  1  0  0  0  0
 54 55  2  0  0  0  0
 55 56  1  0  0  0  0
 56 57  2  0  0  0  0
 57 58  1  0  0  0  0
 58 59  1  0  0  0  0
 49 60  1  0  0  0  0
 60 61  1  0  0  0  0
 61 62  2  0  0  0  0
 63 61  1  1  0  0  0
 63 64  1  0  0  0  0
 64 65  1  0  0  0  0
 65 66  2  0  0  0  0
 65 67  1  0  0  0  0
 67 68  1  1  0  0  0
 68 69  1  0  0  0  0
 67 70  1  0  0  0  0
 70 71  1  0  0  0  0
 71 72  2  0  0  0  0
 71 73  1  0  0  0  0
 73 74  1  0  0  0  0
 74 75  1  0  0  0  0
 75 76  2  0  0  0  0
 75 77  1  0  0  0  0
 77 78  1  6  0  0  0
 78 79  1  0  0  0  0
 79 80  2  0  0  0  0
 79 81  1  0  0  0  0
 77 82  1  0  0  0  0
 82 83  1  0  0  0  0
 83 84  2  0  0  0  0
 83 85  1  0  0  0  0
 85 86  1  1  0  0  0
 85 87  1  0  0  0  0
 87 88  1  0  0  0  0
 88 89  2  0  0  0  0
 88 90  1  0  0  0  0
 90 91  1  0  0  0  0
 91 92  1  0  0  0  0
 92 93  2  0  0  0  0
 92 94  1  0  0  0  0
 90 95  1  0  0  0  0
 95 96  1  0  0  0  0
 96 97  2  0  0  0  0
 96 98  1  0  0  0  0
 98 99  1  1  0  0  0
 99100  1  0  0  0  0
100101  1  0  0  0  0
101102  1  0  0  0  0
 98103  1  0  0  0  0
103104  1  0  0  0  0
104105  2  0  0  0  0
104106  1  0  0  0  0
106107  1  0  0  0  0
107108  1  0  0  0  0
108109  2  0  0  0  0
 63110  1  0  0  0  0
110111  1  6  0  0  0
110112  1  0  0  0  0
112113  1  0  0  0  0
113114  2  0  0  0  0
113115  1  0  0  0  0
M  END
>  <Name>
Daptomycin

>  <CAS #>
103060-53-3

>  <human Clearance (mL/min/kg)>
0.16

>  <Primary mechanism (metabolic, biliary or renal)>
renal

>  <seqId>
256.0

>  <Code (mechanism and clearance degree index)>
R1

>  < Five M1 and R1 test groups>
R1_2

>  <formamide>
0

>  <prodrug phosphates>
0

>  <VolSurf_V>
2949.0

>  <VolSurf_S>
1659.44

>  <VolSurf_R>
1.7771

>  <VolSurf_G>
2.15547

>  <VolSurf_IW1>
0.0234251

>  <VolSurf_IW2>
0.0445666

>  <VolSurf_IW3>
0.082429

>  <VolSurf_IW4>
0.142965

>  <VolSurf_ID1>
0.0304891

>  <VolSurf_ID2>
0.0576633

>  <VolSurf_ID3>
0.0830546

>  <VolSurf_ID4>
0.0974268

>  <VolSurf_HL1>
13.5838

>  <VolSurf_HL2>
14.6667

>  <VolSurf_A>
6.43935

>  <VolSurf_CP>
0.112083

>  <VolSurf_POL>
154.108

>  <VolSurf_MW>
1617.65

>  <VolSurf_FLEX>
4.72376

>  <VolSurf_FLEX_RB>
0.10269

>  <VolSurf_NCC>
5.0

>  <VolSurf_LOGP n-Oct>
-6.447

>  <VolSurf_LOGP c-Hex>
-9.0

>  <VolSurf_PSA>
742.13

>  <VolSurf_HSA>
917.314

>  <VolSurf_PSAR>
0.447216

>  <VolSurf_PHSAR>
0.809025

>  <VolSurf_LgD5>
-9.0

>  <VolSurf_LgD6>
-9.0

>  <VolSurf_LgD7>
-9.0

>  <VolSurf_LgD7.5>
-9.0

>  <VolSurf_LgD8>
-9.0

>  <VolSurf_LgD9>
-9.0

>  <VolSurf_LgD10>
-9.0

>  <VolSurf_AUS7.4>
0.0

>  <VolSurf_%FU4>
0.0

>  <VolSurf_%FU5>
0.0

>  <VolSurf_%FU6>
0.0

>  <VolSurf_%FU7>
0.0

>  <VolSurf_%FU8>
0.0

>  <VolSurf_%FU9>
0.0

>  <VolSurf_%FU10>
0.0

>  <ID>
137

>  <MOKAID>
138

>  <Clearance Route>
possible billary

>  <PC1>
-10.7387

>  <PC2>
-11.1934

$$$$
Darifenacin
  -OEChem-08301611272D

 32 36  0     1  0  0  0  0  0999 V2000
   -1.1360   -0.9887    0.0000 N   0  0  0  0  0  0  0  0  0  0  0  0
   -0.2229   -1.3965    0.0000 C   0  0  0  0  0  0  0  0  0  0  0  0
   -0.1196   -2.3912    0.0000 O   0  0  0  0  0  0  0  0  0  0  0  0
    0.5868   -0.8097    0.0000 C   0  0  0  0  0  0  0  0  0  0  0  0
    0.0000    0.0000    0.0000 C   0  0  2  0  0  0  0  0  0  0  0  0
   -1.0015    0.0000    0.0000 C   0  0  0  0  0  0  0  0  0  0  0  0
   -1.3080    0.9519    0.0000 C   0  0  0  0  0  0  0  0  0  0  0  0
   -0.5007    1.5428    0.0000 N   0  0  3  0  0  0  0  0  0  0  0  0
   -0.5022    2.5428    0.0000 C   0  0  0  0  0  0  0  0  0  0  0  0
   -1.3690    3.0415    0.0000 C   0  0  0  0  0  0  0  0  0  0  0  0
   -1.3705    4.0415    0.0000 C   0  0  0  0  0  0  0  0  0  0  0  0
   -2.2416    4.5443    0.0000 C   0  0  0  0  0  0  0  0  0  0  0  0
   -2.2477    5.5500    0.0000 C   0  0  0  0  0  0  0  0  0  0  0  0
   -1.3738    6.0478    0.0000 C   0  0  0  0  0  0  0  0  0  0  0  0
   -1.1644    7.0328    0.0000 O   0  0  0  0  0  0  0  0  0  0  0  0
   -0.1629    7.1383    0.0000 C   0  0  0  0  0  0  0  0  0  0  0  0
    0.2468    6.2183    0.0000 C   0  0  0  0  0  0  0  0  0  0  0  0
   -0.5016    5.5444    0.0000 C   0  0  0  0  0  0  0  0  0  0  0  0
   -0.5055    4.5444    0.0000 C   0  0  0  0  0  0  0  0  0  0  0  0
    0.3118    0.9519    0.0000 C   0  0  0  0  0  0  0  0  0  0  0  0
    1.6138   -2.2267    0.0000 C   0  0  0  0  0  0  0  0  0  0  0  0
    2.6133   -2.1199    0.0000 C   0  0  0  0  0  0  0  0  0  0  0  0
    3.2001   -2.9296    0.0000 C   0  0  0  0  0  0  0  0  0  0  0  0
    2.7977   -3.8451    0.0000 C   0  0  0  0  0  0  0  0  0  0  0  0
    1.7982   -3.9519    0.0000 C   0  0  0  0  0  0  0  0  0  0  0  0
    1.2011   -3.1433    0.0000 C   0  0  0  0  0  0  0  0  0  0  0  0
    1.3965   -0.2229    0.0000 C   0  0  0  0  0  0  0  0  0  0  0  0
    1.2897    0.7766    0.0000 C   0  0  0  0  0  0  0  0  0  0  0  0
    2.0994    1.3635    0.0000 C   0  0  0  0  0  0  0  0  0  0  0  0
    3.0149    0.9610    0.0000 C   0  0  0  0  0  0  0  0  0  0  0  0
    3.1217   -0.0385    0.0000 C   0  0  0  0  0  0  0  0  0  0  0  0
    2.3131   -0.6355    0.0000 C   0  0  0  0  0  0  0  0  0  0  0  0
  1  2  1  0  0  0  0
  2  3  2  0  0  0  0
  2  4  1  0  0  0  0
  5  4  1  6  0  0  0
  5 20  1  0  0  0  0
  5  6  1  0  0  0  0
  6  7  1  0  0  0  0
  7  8  1  0  0  0  0
  8  9  1  0  0  0  0
  9 10  1  0  0  0  0
 10 11  1  0  0  0  0
 11 19  2  0  0  0  0
 11 12  1  0  0  0  0
 12 13  2  0  0  0  0
 13 14  1  0  0  0  0
 14 18  2  0  0  0  0
 14 15  1  0  0  0  0
 15 16  1  0  0  0  0
 16 17  1  0  0  0  0
 17 18  1  0  0  0  0
 18 19  1  0  0  0  0
  8 20  1  0  0  0  0
  4 21  1  0  0  0  0
 21 26  2  0  0  0  0
 21 22  1  0  0  0  0
 22 23  2  0  0  0  0
 23 24  1  0  0  0  0
 24 25  2  0  0  0  0
 25 26  1  0  0  0  0
  4 27  1  0  0  0  0
 27 32  2  0  0  0  0
 27 28  1  0  0  0  0
 28 29  2  0  0  0  0
 29 30  1  0  0  0  0
 30 31  2  0  0  0  0
 31 32  1  0  0  0  0
M  END
>  <Name>
Darifenacin

>  <CAS #>
133099-04-4

>  <human Clearance (mL/min/kg)>
12.0

>  <Primary mechanism (metabolic, biliary or renal)>
metabolic

>  <seqId>
257.0

>  <Code (mechanism and clearance degree index)>
M1

>  < Five M1 and R1 test groups>
M1_3

>  <formamide>
0

>  <prodrug phosphates>
0

>  <VolSurf_V>
988.625

>  <VolSurf_S>
642.969

>  <VolSurf_R>
1.53759

>  <VolSurf_G>
1.5507

>  <VolSurf_IW1>
0.0406219

>  <VolSurf_IW2>
0.1779

>  <VolSurf_IW3>
0.425332

>  <VolSurf_IW4>
0.705484

>  <VolSurf_ID1>
0.0198321

>  <VolSurf_ID2>
0.0301111

>  <VolSurf_ID3>
0.0518874

>  <VolSurf_ID4>
0.0583788

>  <VolSurf_HL1>
0.916045

>  <VolSurf_HL2>
0.877395

>  <VolSurf_A>
3.77595

>  <VolSurf_CP>
3.75958

>  <VolSurf_POL>
51.739

>  <VolSurf_MW>
427.558

>  <VolSurf_FLEX>
2.6674

>  <VolSurf_FLEX_RB>
0.333425

>  <VolSurf_NCC>
1.0

>  <VolSurf_LOGP n-Oct>
3.779

>  <VolSurf_LOGP c-Hex>
3.044

>  <VolSurf_PSA>
65.93

>  <VolSurf_HSA>
577.039

>  <VolSurf_PSAR>
0.10254

>  <VolSurf_PHSAR>
0.114256

>  <VolSurf_LgD5>
0.543883

>  <VolSurf_LgD6>
1.20472

>  <VolSurf_LgD7>
2.14127

>  <VolSurf_LgD7.5>
2.61604

>  <VolSurf_LgD8>
3.05474

>  <VolSurf_LgD9>
3.62349

>  <VolSurf_LgD10>
3.76066

>  <VolSurf_AUS7.4>
0.793072

>  <VolSurf_%FU4>
0.00232131

>  <VolSurf_%FU5>
0.0232082

>  <VolSurf_%FU6>
0.231598

>  <VolSurf_%FU7>
2.2687

>  <VolSurf_%FU8>
18.8401

>  <VolSurf_%FU9>
69.8915

>  <VolSurf_%FU10>
95.8625

>  <ID>
138

>  <MOKAID>
139

>  <Clearance Route>
possible billary

>  <PC1>
2.52292

>  <PC2>
-2.88267

$$$$
Darunavir
  -OEChem-08301611272D

 40 43  0     1  0  0  0  0  0999 V2000
   -0.1940   -7.9349    0.0000 C   0  0  0  0  0  0  0  0  0  0  0  0
    0.4789   -7.1952    0.0000 C   0  0  0  0  0  0  0  0  0  0  0  0
    1.4560   -7.4081    0.0000 C   0  0  0  0  0  0  0  0  0  0  0  0
    0.1748   -6.2426    0.0000 C   0  0  0  0  0  0  0  0  0  0  0  0
    0.8477   -5.5028    0.0000 N   0  0  3  0  0  0  0  0  0  0  0  0
    0.5436   -4.5502    0.0000 C   0  0  0  0  0  0  0  0  0  0  0  0
   -0.4335   -4.3373    0.0000 C   0  0  2  0  0  0  0  0  0  0  0  0
   -0.7376   -3.3847    0.0000 C   0  0  2  0  0  0  0  0  0  0  0  0
   -1.7147   -3.1717    0.0000 C   0  0  0  0  0  0  0  0  0  0  0  0
   -2.3876   -3.9114    0.0000 C   0  0  0  0  0  0  0  0  0  0  0  0
   -2.0791   -4.8681    0.0000 C   0  0  0  0  0  0  0  0  0  0  0  0
   -2.7520   -5.6079    0.0000 C   0  0  0  0  0  0  0  0  0  0  0  0
   -3.7303   -5.4007    0.0000 C   0  0  0  0  0  0  0  0  0  0  0  0
   -4.0389   -4.4440    0.0000 C   0  0  0  0  0  0  0  0  0  0  0  0
   -3.3691   -3.6945    0.0000 C   0  0  0  0  0  0  0  0  0  0  0  0
   -0.0647   -2.6450    0.0000 N   0  0  0  0  0  0  0  0  0  0  0  0
   -0.3688   -1.6923    0.0000 C   0  0  0  0  0  0  0  0  0  0  0  0
   -1.3459   -1.4794    0.0000 O   0  0  0  0  0  0  0  0  0  0  0  0
    0.3041   -0.9526    0.0000 O   0  0  0  0  0  0  0  0  0  0  0  0
    0.0000   -0.0000    0.0000 C   0  0  1  0  0  0  0  0  0  0  0  0
    0.5953    0.8107    0.0000 C   0  0  0  0  0  0  0  0  0  0  0  0
    0.0083    1.6271    0.0000 O   0  0  0  0  0  0  0  0  0  0  0  0
   -0.9502    1.3158    0.0000 C   0  0  2  0  0  0  0  0  0  0  0  0
   -0.9547    0.3157    0.0000 C   0  0  1  0  0  0  0  0  0  0  0  0
   -1.9073    0.0111    0.0000 C   0  0  0  0  0  0  0  0  0  0  0  0
   -2.4915    0.8228    0.0000 C   0  0  0  0  0  0  0  0  0  0  0  0
   -1.8999    1.6292    0.0000 O   0  0  0  0  0  0  0  0  0  0  0  0
   -1.1064   -5.0770    0.0000 O   0  0  0  0  0  0  0  0  0  0  0  0
    1.8248   -5.7158    0.0000 S   0  0  0  0  0  0  0  0  0  0  0  0
    2.0377   -4.7387    0.0000 O   0  0  0  0  0  0  0  0  0  0  0  0
    1.6119   -6.6928    0.0000 O   0  0  0  0  0  0  0  0  0  0  0  0
    2.8019   -5.9287    0.0000 C   0  0  0  0  0  0  0  0  0  0  0  0
    3.4761   -5.1832    0.0000 C   0  0  0  0  0  0  0  0  0  0  0  0
    4.4532   -5.3961    0.0000 C   0  0  0  0  0  0  0  0  0  0  0  0
    4.7629   -6.3469    0.0000 C   0  0  0  0  0  0  0  0  0  0  0  0
    4.0887   -7.0925    0.0000 C   0  0  0  0  0  0  0  0  0  0  0  0
    3.1047   -6.8871    0.0000 C   0  0  0  0  0  0  0  0  0  0  0  0
    5.7409   -6.5555    0.0000 N   0  0  0  0  0  0  0  0  0  0  0  0
   -0.9478    2.3158    0.0000 H   0  0  0  0  0  0  0  0  0  0  0  0
   -0.9596   -0.6843    0.0000 H   0  0  0  0  0  0  0  0  0  0  0  0
  1  2  1  0  0  0  0
  2  3  1  0  0  0  0
  2  4  1  0  0  0  0
  4  5  1  0  0  0  0
  5  6  1  0  0  0  0
  6  7  1  0  0  0  0
  7  8  1  0  0  0  0
  8  9  1  6  0  0  0
  9 10  1  0  0  0  0
 10 15  2  0  0  0  0
 10 11  1  0  0  0  0
 11 12  2  0  0  0  0
 12 13  1  0  0  0  0
 13 14  2  0  0  0  0
 14 15  1  0  0  0  0
  8 16  1  0  0  0  0
 16 17  1  0  0  0  0
 17 18  2  0  0  0  0
 17 19  1  0  0  0  0
 20 19  1  6  0  0  0
 20 24  1  0  0  0  0
 20 21  1  0  0  0  0
 21 22  1  0  0  0  0
 22 23  1  0  0  0  0
 23 27  1  0  0  0  0
 23 24  1  0  0  0  0
 24 25  1  0  0  0  0
 25 26  1  0  0  0  0
 26 27  1  0  0  0  0
  7 28  1  1  0  0  0
  5 29  1  0  0  0  0
 29 30  2  0  0  0  0
 29 31  2  0  0  0  0
 29 32  1  0  0  0  0
 32 37  2  0  0  0  0
 32 33  1  0  0  0  0
 33 34  2  0  0  0  0
 34 35  1  0  0  0  0
 35 36  2  0  0  0  0
 36 37  1  0  0  0  0
 35 38  1  0  0  0  0
 23 39  1  1  0  0  0
 24 40  1  1  0  0  0
M  END
>  <Name>
Darunavir

>  <CAS #>
206361-99-1

>  <human Clearance (mL/min/kg)>
7.81

>  <Primary mechanism (metabolic, biliary or renal)>
metabolic

>  <seqId>
258.0

>  <Code (mechanism and clearance degree index)>
M1

>  < Five M1 and R1 test groups>
M1_2

>  <formamide>
0

>  <prodrug phosphates>
0

>  <VolSurf_V>
1135.5

>  <VolSurf_S>
735.322

>  <VolSurf_R>
1.54422

>  <VolSurf_G>
1.65121

>  <VolSurf_IW1>
0.0349895

>  <VolSurf_IW2>
0.0924831

>  <VolSurf_IW3>
0.236691

>  <VolSurf_IW4>
0.528228

>  <VolSurf_ID1>
0.0348673

>  <VolSurf_ID2>
0.0944093

>  <VolSurf_ID3>
0.152038

>  <VolSurf_ID4>
0.189355

>  <VolSurf_HL1>
3.58359

>  <VolSurf_HL2>
2.59887

>  <VolSurf_A>
5.41653

>  <VolSurf_CP>
0.358015

>  <VolSurf_POL>
57.1191

>  <VolSurf_MW>
547.663

>  <VolSurf_FLEX>
3.92675

>  <VolSurf_FLEX_RB>
0.245422

>  <VolSurf_NCC>
0.0

>  <VolSurf_LOGP n-Oct>
2.813

>  <VolSurf_LOGP c-Hex>
-4.496

>  <VolSurf_PSA>
154.813

>  <VolSurf_HSA>
580.509

>  <VolSurf_PSAR>
0.210537

>  <VolSurf_PHSAR>
0.266684

>  <VolSurf_LgD5>
2.8128

>  <VolSurf_LgD6>
2.81298

>  <VolSurf_LgD7>
2.813

>  <VolSurf_LgD7.5>
2.813

>  <VolSurf_LgD8>
2.813

>  <VolSurf_LgD9>
2.813

>  <VolSurf_LgD10>
2.81299

>  <VolSurf_AUS7.4>
2.0

>  <VolSurf_%FU4>
99.5513

>  <VolSurf_%FU5>
99.9549

>  <VolSurf_%FU6>
99.9955

>  <VolSurf_%FU7>
99.9995

>  <VolSurf_%FU8>
99.9999

>  <VolSurf_%FU9>
99.9998

>  <VolSurf_%FU10>
99.9982

>  <ID>
139

>  <MOKAID>
140

>  <Clearance Route>
possible billary

>  <PC1>
2.83318

>  <PC2>
-3.14055

$$$$
Deferasirox
  -OEChem-08301611272D

 28 31  0     0  0  0  0  0  0999 V2000
    1.6729    5.0935    0.0000 O   0  0  0  0  0  0  0  0  0  0  0  0
    0.8055    4.5959    0.0000 C   0  0  0  0  0  0  0  0  0  0  0  0
    0.8026    3.5960    0.0000 C   0  0  0  0  0  0  0  0  0  0  0  0
    1.6732    3.0934    0.0000 C   0  0  0  0  0  0  0  0  0  0  0  0
    1.6703    2.0934    0.0000 C   0  0  0  0  0  0  0  0  0  0  0  0
    0.8058    1.5908    0.0000 C   0  0  0  0  0  0  0  0  0  0  0  0
   -0.0648    2.0933    0.0000 C   0  0  0  0  0  0  0  0  0  0  0  0
   -0.0708    3.0985    0.0000 C   0  0  0  0  0  0  0  0  0  0  0  0
    0.8073    0.5908    0.0000 N   0  0  0  0  0  0  0  0  0  0  0  0
    0.0000    0.0000    0.0000 C   0  0  0  0  0  0  0  0  0  0  0  0
   -0.9512    0.3086    0.0000 C   0  0  0  0  0  0  0  0  0  0  0  0
   -1.1609    1.2864    0.0000 C   0  0  0  0  0  0  0  0  0  0  0  0
   -2.1108    1.5992    0.0000 C   0  0  0  0  0  0  0  0  0  0  0  0
   -2.8585    0.9274    0.0000 C   0  0  0  0  0  0  0  0  0  0  0  0
   -2.6563   -0.0573    0.0000 C   0  0  0  0  0  0  0  0  0  0  0  0
   -1.6989   -0.3632    0.0000 C   0  0  0  0  0  0  0  0  0  0  0  0
   -1.4891   -1.3410    0.0000 O   0  0  0  0  0  0  0  0  0  0  0  0
    0.3065   -0.9518    0.0000 N   0  0  0  0  0  0  0  0  0  0  0  0
    1.3080   -0.9518    0.0000 C   0  0  0  0  0  0  0  0  0  0  0  0
    1.8948   -1.7615    0.0000 C   0  0  0  0  0  0  0  0  0  0  0  0
    2.8896   -1.6596    0.0000 C   0  0  0  0  0  0  0  0  0  0  0  0
    3.4800   -2.4668    0.0000 C   0  0  0  0  0  0  0  0  0  0  0  0
    3.0714   -3.3852    0.0000 C   0  0  0  0  0  0  0  0  0  0  0  0
    2.0724   -3.4964    0.0000 C   0  0  0  0  0  0  0  0  0  0  0  0
    1.4862   -2.6799    0.0000 C   0  0  0  0  0  0  0  0  0  0  0  0
    0.4914   -2.7818    0.0000 O   0  0  0  0  0  0  0  0  0  0  0  0
    1.6198   -0.0000    0.0000 N   0  0  0  0  0  0  0  0  0  0  0  0
   -0.0591    5.0984    0.0000 O   0  0  0  0  0  0  0  0  0  0  0  0
  1  2  1  0  0  0  0
  2  3  1  0  0  0  0
  3  8  2  0  0  0  0
  3  4  1  0  0  0  0
  4  5  2  0  0  0  0
  5  6  1  0  0  0  0
  6  7  2  0  0  0  0
  7  8  1  0  0  0  0
  6  9  1  0  0  0  0
  9 27  1  0  0  0  0
  9 10  1  0  0  0  0
 10 11  1  0  0  0  0
 11 16  2  0  0  0  0
 11 12  1  0  0  0  0
 12 13  2  0  0  0  0
 13 14  1  0  0  0  0
 14 15  2  0  0  0  0
 15 16  1  0  0  0  0
 16 17  1  0  0  0  0
 10 18  2  0  0  0  0
 18 19  1  0  0  0  0
 19 20  1  0  0  0  0
 20 25  2  0  0  0  0
 20 21  1  0  0  0  0
 21 22  2  0  0  0  0
 22 23  1  0  0  0  0
 23 24  2  0  0  0  0
 24 25  1  0  0  0  0
 25 26  1  0  0  0  0
 19 27  2  0  0  0  0
  2 28  2  0  0  0  0
M  END
>  <Name>
Deferasirox

>  <CAS #>
201530-41-8

>  <human Clearance (mL/min/kg)>
0.84

>  <Primary mechanism (metabolic, biliary or renal)>
metabolic

>  <seqId>
261.0

>  <Code (mechanism and clearance degree index)>
M1

>  < Five M1 and R1 test groups>
M1_3

>  <formamide>
0

>  <prodrug phosphates>
0

>  <VolSurf_V>
771.0

>  <VolSurf_S>
521.176

>  <VolSurf_R>
1.47935

>  <VolSurf_G>
1.4511

>  <VolSurf_IW1>
0.0791557

>  <VolSurf_IW2>
0.225872

>  <VolSurf_IW3>
0.677002

>  <VolSurf_IW4>
1.43388

>  <VolSurf_ID1>
0.0397757

>  <VolSurf_ID2>
0.0539242

>  <VolSurf_ID3>
0.0707887

>  <VolSurf_ID4>
0.085099

>  <VolSurf_HL1>
1.8035

>  <VolSurf_HL2>
1.48308

>  <VolSurf_A>
4.86043

>  <VolSurf_CP>
1.98887

>  <VolSurf_POL>
38.32

>  <VolSurf_MW>
372.353

>  <VolSurf_FLEX>
0.874215

>  <VolSurf_FLEX_RB>
0.145702

>  <VolSurf_NCC>
1.0

>  <VolSurf_LOGP n-Oct>
4.464

>  <VolSurf_LOGP c-Hex>
-2.147

>  <VolSurf_PSA>
114.85

>  <VolSurf_HSA>
406.326

>  <VolSurf_PSAR>
0.220367

>  <VolSurf_PHSAR>
0.282655

>  <VolSurf_LgD5>
3.22653

>  <VolSurf_LgD6>
2.27395

>  <VolSurf_LgD7>
1.46452

>  <VolSurf_LgD7.5>
1.22784

>  <VolSurf_LgD8>
1.10422

>  <VolSurf_LgD9>
0.887617

>  <VolSurf_LgD10>
0.0283632

>  <VolSurf_AUS7.4>
0.0

>  <VolSurf_%FU4>
37.8924

>  <VolSurf_%FU5>
5.7507

>  <VolSurf_%FU6>
0.606206

>  <VolSurf_%FU7>
0.0606986

>  <VolSurf_%FU8>
0.00582692

>  <VolSurf_%FU9>
4.01737E-4

>  <VolSurf_%FU10>
5.57293E-6

>  <ID>
140

>  <MOKAID>
141

>  <Clearance Route>
possible billary

>  <PC1>
0.9203610000000001

>  <PC2>
-0.713156

$$$$
Dexmedetomidine
  -OEChem-08301611272D

 15 16  0     1  0  0  0  0  0999 V2000
   -1.1595    1.2867    0.0000 C   0  0  0  0  0  0  0  0  0  0  0  0
   -0.9512    0.3087    0.0000 C   0  0  2  0  0  0  0  0  0  0  0  0
    0.0000    0.0000    0.0000 C   0  0  0  0  0  0  0  0  0  0  0  0
    0.3065   -0.9519    0.0000 C   0  0  0  0  0  0  0  0  0  0  0  0
    1.3079   -0.9519    0.0000 N   0  0  0  0  0  0  0  0  0  0  0  0
    1.6196    0.0000    0.0000 C   0  0  0  0  0  0  0  0  0  0  0  0
    0.8072    0.5907    0.0000 N   0  0  0  0  0  0  0  0  0  0  0  0
   -1.6941   -0.3608    0.0000 C   0  0  0  0  0  0  0  0  0  0  0  0
   -2.6493   -0.0477    0.0000 C   0  0  0  0  0  0  0  0  0  0  0  0
   -3.3922   -0.7171    0.0000 C   0  0  0  0  0  0  0  0  0  0  0  0
   -3.1896   -1.6964    0.0000 C   0  0  0  0  0  0  0  0  0  0  0  0
   -2.2344   -2.0095    0.0000 C   0  0  0  0  0  0  0  0  0  0  0  0
   -2.0319   -2.9887    0.0000 C   0  0  0  0  0  0  0  0  0  0  0  0
   -1.4818   -1.3432    0.0000 C   0  0  0  0  0  0  0  0  0  0  0  0
   -0.5315   -1.6547    0.0000 C   0  0  0  0  0  0  0  0  0  0  0  0
  2  1  1  6  0  0  0
  2  3  1  0  0  0  0
  3  7  1  0  0  0  0
  3  4  2  0  0  0  0
  4  5  1  0  0  0  0
  5  6  1  0  0  0  0
  6  7  2  0  0  0  0
  2  8  1  0  0  0  0
  8 14  2  0  0  0  0
  8  9  1  0  0  0  0
  9 10  2  0  0  0  0
 10 11  1  0  0  0  0
 11 12  2  0  0  0  0
 12 13  1  0  0  0  0
 12 14  1  0  0  0  0
 14 15  1  0  0  0  0
M  END
>  <Name>
Dexmedetomidine

>  <CAS #>
145108-58-3

>  <human Clearance (mL/min/kg)>
11.0

>  <Primary mechanism (metabolic, biliary or renal)>
metabolic

>  <seqId>
276.0

>  <Code (mechanism and clearance degree index)>
M1

>  < Five M1 and R1 test groups>
M1_4

>  <formamide>
0

>  <prodrug phosphates>
0

>  <VolSurf_V>
520.125

>  <VolSurf_S>
353.991

>  <VolSurf_R>
1.46932

>  <VolSurf_G>
1.20408

>  <VolSurf_IW1>
0.0743673

>  <VolSurf_IW2>
0.43312

>  <VolSurf_IW3>
0.906177

>  <VolSurf_IW4>
1.23569

>  <VolSurf_ID1>
0.0277588

>  <VolSurf_ID2>
0.0617566

>  <VolSurf_ID3>
0.15943

>  <VolSurf_ID4>
0.236441

>  <VolSurf_HL1>
0.569444

>  <VolSurf_HL2>
0.526882

>  <VolSurf_A>
4.06997

>  <VolSurf_CP>
4.12921

>  <VolSurf_POL>
24.724

>  <VolSurf_MW>
200.279

>  <VolSurf_FLEX>
0.745221

>  <VolSurf_FLEX_RB>
0.149044

>  <VolSurf_NCC>
0.0

>  <VolSurf_LOGP n-Oct>
2.636

>  <VolSurf_LOGP c-Hex>
1.001

>  <VolSurf_PSA>
24.66

>  <VolSurf_HSA>
329.331

>  <VolSurf_PSAR>
0.0696629

>  <VolSurf_PHSAR>
0.0748791

>  <VolSurf_LgD5>
0.905839

>  <VolSurf_LgD6>
1.83304

>  <VolSurf_LgD7>
2.44959

>  <VolSurf_LgD7.5>
2.56798

>  <VolSurf_LgD8>
2.61331

>  <VolSurf_LgD9>
2.63364

>  <VolSurf_LgD10>
2.63539

>  <VolSurf_AUS7.4>
1.91963

>  <VolSurf_%FU4>
0.186101

>  <VolSurf_%FU5>
1.83035

>  <VolSurf_%FU6>
15.7148

>  <VolSurf_%FU7>
65.0896

>  <VolSurf_%FU8>
94.9088

>  <VolSurf_%FU9>
99.4579

>  <VolSurf_%FU10>
99.8596

>  <ID>
141

>  <MOKAID>
142

>  <Clearance Route>
metabolic

>  <PC1>
4.1517

>  <PC2>
2.11416

$$$$
Dexmethylphenidate
  -OEChem-08301611272D

 17 18  0     1  0  0  0  0  0999 V2000
    4.3376    0.4976    0.0000 C   0  0  0  0  0  0  0  0  0  0  0  0
    4.3347    1.4977    0.0000 C   0  0  0  0  0  0  0  0  0  0  0  0
    3.4701    2.0002    0.0000 C   0  0  0  0  0  0  0  0  0  0  0  0
    2.5995    1.4976    0.0000 C   0  0  0  0  0  0  0  0  0  0  0  0
    1.7350    2.0001    0.0000 C   0  0  2  0  0  0  0  0  0  0  0  0
    0.8675    1.5027    0.0000 C   0  0  1  0  0  0  0  0  0  0  0  0
    0.8675    0.4975    0.0000 C   0  0  0  0  0  0  0  0  0  0  0  0
    0.0000    0.0000    0.0000 C   0  0  0  0  0  0  0  0  0  0  0  0
   -0.8675    0.4975    0.0000 C   0  0  0  0  0  0  0  0  0  0  0  0
   -0.8675    1.5027    0.0000 C   0  0  0  0  0  0  0  0  0  0  0  0
    0.0000    2.0104    0.0000 N   0  0  0  0  0  0  0  0  0  0  0  0
    1.7379    3.0001    0.0000 C   0  0  0  0  0  0  0  0  0  0  0  0
    0.8734    3.5027    0.0000 O   0  0  0  0  0  0  0  0  0  0  0  0
    0.8764    4.5027    0.0000 C   0  0  0  0  0  0  0  0  0  0  0  0
    2.6054    3.4976    0.0000 O   0  0  0  0  0  0  0  0  0  0  0  0
    2.5936    0.4925    0.0000 C   0  0  0  0  0  0  0  0  0  0  0  0
    3.4670   -0.0050    0.0000 C   0  0  0  0  0  0  0  0  0  0  0  0
  1 17  2  0  0  0  0
  1  2  1  0  0  0  0
  2  3  2  0  0  0  0
  3  4  1  0  0  0  0
  4  5  1  0  0  0  0
  5  6  1  0  0  0  0
  6 11  1  0  0  0  0
  6  7  1  1  0  0  0
  7  8  1  0  0  0  0
  8  9  1  0  0  0  0
  9 10  1  0  0  0  0
 10 11  1  0  0  0  0
  5 12  1  6  0  0  0
 12 13  1  0  0  0  0
 13 14  1  0  0  0  0
 12 15  2  0  0  0  0
  4 16  2  0  0  0  0
 16 17  1  0  0  0  0
M  END
>  <Name>
Dexmethylphenidate

>  <CAS #>
40431-64-9

>  <human Clearance (mL/min/kg)>
6.67

>  <Primary mechanism (metabolic, biliary or renal)>
metabolic

>  <seqId>
277.0

>  <Code (mechanism and clearance degree index)>
M1

>  < Five M1 and R1 test groups>
M1_1

>  <formamide>
0

>  <prodrug phosphates>
0

>  <VolSurf_V>
589.375

>  <VolSurf_S>
412.367

>  <VolSurf_R>
1.42925

>  <VolSurf_G>
1.336

>  <VolSurf_IW1>
0.0532584

>  <VolSurf_IW2>
0.262542

>  <VolSurf_IW3>
0.795093

>  <VolSurf_IW4>
1.31726

>  <VolSurf_ID1>
0.0514036

>  <VolSurf_ID2>
0.141142

>  <VolSurf_ID3>
0.260394

>  <VolSurf_ID4>
0.408683

>  <VolSurf_HL1>
2.96842

>  <VolSurf_HL2>
5.03448

>  <VolSurf_A>
6.29448

>  <VolSurf_CP>
0.278346

>  <VolSurf_POL>
29.337

>  <VolSurf_MW>
234.314

>  <VolSurf_FLEX>
1.09859

>  <VolSurf_FLEX_RB>
0.219719

>  <VolSurf_NCC>
1.0

>  <VolSurf_LOGP n-Oct>
2.132

>  <VolSurf_LOGP c-Hex>
2.027

>  <VolSurf_PSA>
49.88

>  <VolSurf_HSA>
362.487

>  <VolSurf_PSAR>
0.12096

>  <VolSurf_PHSAR>
0.137605

>  <VolSurf_LgD5>
-1.25726

>  <VolSurf_LgD6>
-0.490501

>  <VolSurf_LgD7>
0.469121

>  <VolSurf_LgD7.5>
0.946822

>  <VolSurf_LgD8>
1.38882

>  <VolSurf_LgD9>
1.96946

>  <VolSurf_LgD10>
2.11272

>  <VolSurf_AUS7.4>
0.773942

>  <VolSurf_%FU4>
0.00220233

>  <VolSurf_%FU5>
0.0220189

>  <VolSurf_%FU6>
0.219754

>  <VolSurf_%FU7>
2.15492

>  <VolSurf_%FU8>
18.0488

>  <VolSurf_%FU9>
68.7732

>  <VolSurf_%FU10>
95.6567

>  <ID>
142

>  <MOKAID>
143

>  <Clearance Route>
metabolic

>  <PC1>
1.9443700000000002

>  <PC2>
2.42937

$$$$
DHA Paclitaxel
  -OEChem-08301611272D

 87 93  0     1  0  0  0  0  0999 V2000
   -6.9370    5.9899    0.0000 C   0  0  0  0  0  0  0  0  0  0  0  0
   -6.0702    5.4911    0.0000 C   0  0  0  0  0  0  0  0  0  0  0  0
   -5.2049    5.9924    0.0000 C   0  0  0  0  0  0  0  0  0  0  0  0
   -5.2064    6.9924    0.0000 C   0  0  0  0  0  0  0  0  0  0  0  0
   -6.0731    7.4911    0.0000 C   0  0  0  0  0  0  0  0  0  0  0  0
   -6.0746    8.4911    0.0000 C   0  0  0  0  0  0  0  0  0  0  0  0
   -5.2093    8.9924    0.0000 C   0  0  0  0  0  0  0  0  0  0  0  0
   -4.3425    8.4937    0.0000 C   0  0  0  0  0  0  0  0  0  0  0  0
   -3.4773    8.9949    0.0000 C   0  0  0  0  0  0  0  0  0  0  0  0
   -2.6105    8.4962    0.0000 C   0  0  0  0  0  0  0  0  0  0  0  0
   -2.6090    7.4962    0.0000 C   0  0  0  0  0  0  0  0  0  0  0  0
   -1.7423    6.9975    0.0000 C   0  0  0  0  0  0  0  0  0  0  0  0
   -1.7408    5.9975    0.0000 C   0  0  0  0  0  0  0  0  0  0  0  0
   -2.6061    5.4962    0.0000 C   0  0  0  0  0  0  0  0  0  0  0  0
   -3.4729    5.9949    0.0000 C   0  0  0  0  0  0  0  0  0  0  0  0
   -4.3382    5.4937    0.0000 C   0  0  0  0  0  0  0  0  0  0  0  0
   -4.3367    4.4937    0.0000 C   0  0  0  0  0  0  0  0  0  0  0  0
   -5.2020    3.9924    0.0000 C   0  0  0  0  0  0  0  0  0  0  0  0
   -5.2005    2.9924    0.0000 C   0  0  0  0  0  0  0  0  0  0  0  0
   -4.3338    2.4937    0.0000 C   0  0  0  0  0  0  0  0  0  0  0  0
   -4.3323    1.4937    0.0000 C   0  0  0  0  0  0  0  0  0  0  0  0
   -3.4656    0.9949    0.0000 C   0  0  0  0  0  0  0  0  0  0  0  0
   -2.6003    1.4962    0.0000 O   0  0  0  0  0  0  0  0  0  0  0  0
   -3.4641   -0.0051    0.0000 O   0  0  0  0  0  0  0  0  0  0  0  0
   -2.5973   -0.5038    0.0000 C   0  0  2  0  0  0  0  0  0  0  0  0
   -2.5959   -1.5038    0.0000 C   0  0  1  0  0  0  0  0  0  0  0  0
   -3.4612   -2.0051    0.0000 N   0  0  0  0  0  0  0  0  0  0  0  0
   -4.3279   -1.5063    0.0000 C   0  0  0  0  0  0  0  0  0  0  0  0
   -4.3294   -0.5063    0.0000 O   0  0  0  0  0  0  0  0  0  0  0  0
   -5.1932   -2.0076    0.0000 C   0  0  0  0  0  0  0  0  0  0  0  0
   -6.0630   -1.5037    0.0000 C   0  0  0  0  0  0  0  0  0  0  0  0
   -6.9283   -2.0049    0.0000 C   0  0  0  0  0  0  0  0  0  0  0  0
   -6.9327   -3.0050    0.0000 C   0  0  0  0  0  0  0  0  0  0  0  0
   -6.0630   -3.5089    0.0000 C   0  0  0  0  0  0  0  0  0  0  0  0
   -5.1888   -3.0127    0.0000 C   0  0  0  0  0  0  0  0  0  0  0  0
   -1.7291   -2.0025    0.0000 C   0  0  0  0  0  0  0  0  0  0  0  0
   -1.7306   -3.0077    0.0000 C   0  0  0  0  0  0  0  0  0  0  0  0
   -0.8639   -3.5065    0.0000 C   0  0  0  0  0  0  0  0  0  0  0  0
    0.0044   -3.0103    0.0000 C   0  0  0  0  0  0  0  0  0  0  0  0
    0.0059   -2.0051    0.0000 C   0  0  0  0  0  0  0  0  0  0  0  0
   -0.8609   -1.4961    0.0000 C   0  0  0  0  0  0  0  0  0  0  0  0
   -1.7320   -0.0025    0.0000 C   0  0  0  0  0  0  0  0  0  0  0  0
   -1.7335    0.9975    0.0000 O   0  0  0  0  0  0  0  0  0  0  0  0
   -0.8653   -0.5013    0.0000 O   0  0  0  0  0  0  0  0  0  0  0  0
    0.0000    0.0000    0.0000 C   0  0  1  0  0  0  0  0  0  0  0  0
    0.8733   -0.5008    0.0000 C   0  0  0  0  0  0  0  0  0  0  0  0
    1.7466    0.0000    0.0000 C   0  0  1  0  0  0  0  0  0  0  0  0
    2.0040   -0.9663    0.0000 O   0  0  0  0  0  0  0  0  0  0  0  0
    2.7546   -0.0000    0.0000 C   0  0  1  0  0  0  0  0  0  0  0  0
    3.1389   -0.9232    0.0000 O   0  0  0  0  0  0  0  0  0  0  0  0
    2.5315   -1.7176    0.0000 C   0  0  0  0  0  0  0  0  0  0  0  0
    1.5398   -1.5888    0.0000 O   0  0  0  0  0  0  0  0  0  0  0  0
    3.2040   -3.3332    0.0000 C   0  0  0  0  0  0  0  0  0  0  0  0
    2.5911   -4.1300    0.0000 C   0  0  0  0  0  0  0  0  0  0  0  0
    2.9754   -5.0532    0.0000 C   0  0  0  0  0  0  0  0  0  0  0  0
    3.9663   -5.1878    0.0000 C   0  0  0  0  0  0  0  0  0  0  0  0
    4.5792   -4.3911    0.0000 C   0  0  0  0  0  0  0  0  0  0  0  0
    4.2012   -3.4598    0.0000 C   0  0  0  0  0  0  0  0  0  0  0  0
    3.4702    0.7206    0.0000 C   0  0  2  0  0  0  0  0  0  0  0  0
    4.3392    0.2120    0.0000 C   0  0  2  0  0  0  0  0  0  0  0  0
    4.8430   -0.6632    0.0000 C   0  0  0  0  0  0  0  0  0  0  0  0
    5.7182   -0.1594    0.0000 O   0  0  0  0  0  0  0  0  0  0  0  0
    5.2143    0.7157    0.0000 C   0  0  2  0  0  0  0  0  0  0  0  0
    5.2184    1.7248    0.0000 C   0  0  0  0  0  0  0  0  0  0  0  0
    4.3444    2.2307    0.0000 C   0  0  2  0  0  0  0  0  0  0  0  0
    4.3482    3.9807    0.0000 O   0  0  0  0  0  0  0  0  0  0  0  0
    3.4665    1.7276    0.0000 C   0  0  2  0  0  0  0  0  0  0  0  0
    3.5693    2.7223    0.0000 C   0  0  0  0  0  0  0  0  0  0  0  0
    2.7189    2.3918    0.0000 C   0  0  0  0  0  0  0  0  0  0  0  0
    3.3406    4.0276    0.0000 O   0  0  0  0  0  0  0  0  0  0  0  0
    1.6457    2.3918    0.0000 C   0  0  2  0  0  0  0  0  0  0  0  0
    1.2361    3.3041    0.0000 O   0  0  0  0  0  0  0  0  0  0  0  0
    0.2412    3.4054    0.0000 C   0  0  0  0  0  0  0  0  0  0  0  0
   -0.3440    2.5946    0.0000 O   0  0  0  0  0  0  0  0  0  0  0  0
   -0.1684    4.3177    0.0000 C   0  0  0  0  0  0  0  0  0  0  0  0
    0.8733    1.5230    0.0000 C   0  0  0  0  0  0  0  0  0  0  0  0
    0.0000    1.0119    0.0000 C   0  0  0  0  0  0  0  0  0  0  0  0
   -0.8675    1.5093    0.0000 C   0  0  0  0  0  0  0  0  0  0  0  0
    1.7466    1.0119    0.0000 C   0  0  0  0  0  0  0  0  0  0  0  0
    2.0923    1.9502    0.0000 C   0  0  0  0  0  0  0  0  0  0  0  0
    2.7311    0.8363    0.0000 C   0  0  0  0  0  0  0  0  0  0  0  0
    3.6296   -0.4926    0.0000 O   0  0  0  0  0  0  0  0  0  0  0  0
    3.8849   -1.4594    0.0000 C   0  0  0  0  0  0  0  0  0  0  0  0
    4.8499   -1.7217    0.0000 O   0  0  0  0  0  0  0  0  0  0  0  0
    3.1752   -2.1640    0.0000 C   0  0  0  0  0  0  0  0  0  0  0  0
    2.5450    1.1000    0.0000 H   0  0  0  0  0  0  0  0  0  0  0  0
    6.1809    0.9720    0.0000 H   0  0  0  0  0  0  0  0  0  0  0  0
  1  2  1  0  0  0  0
  2  3  1  0  0  0  0
  3  4  2  0  0  0  0
  4  5  1  0  0  0  0
  5  6  1  0  0  0  0
  6  7  2  0  0  0  0
  7  8  1  0  0  0  0
  8  9  1  0  0  0  0
  9 10  2  0  0  0  0
 10 11  1  0  0  0  0
 11 12  1  0  0  0  0
 12 13  2  0  0  0  0
 13 14  1  0  0  0  0
 14 15  1  0  0  0  0
 15 16  2  0  0  0  0
 16 17  1  0  0  0  0
 17 18  1  0  0  0  0
 18 19  2  0  0  0  0
 19 20  1  0  0  0  0
 20 21  1  0  0  0  0
 21 22  1  0  0  0  0
 22 23  2  0  0  0  0
 22 24  1  0  0  0  0
 24 25  1  0  0  0  0
 25 26  1  0  0  0  0
 26 27  1  6  0  0  0
 27 28  1  0  0  0  0
 28 29  2  0  0  0  0
 28 30  1  0  0  0  0
 30 35  2  0  0  0  0
 30 31  1  0  0  0  0
 31 32  2  0  0  0  0
 32 33  1  0  0  0  0
 33 34  2  0  0  0  0
 34 35  1  0  0  0  0
 26 36  1  0  0  0  0
 36 41  2  0  0  0  0
 36 37  1  0  0  0  0
 37 38  2  0  0  0  0
 38 39  1  0  0  0  0
 39 40  2  0  0  0  0
 40 41  1  0  0  0  0
 25 42  1  1  0  0  0
 42 43  2  0  0  0  0
 42 44  1  0  0  0  0
 45 44  1  6  0  0  0
 45 77  1  0  0  0  0
 45 46  1  0  0  0  0
 46 47  1  0  0  0  0
 47 79  1  0  0  0  0
 47 48  1  1  0  0  0
 47 49  1  0  0  0  0
 49 50  1  6  0  0  0
 50 51  1  0  0  0  0
 51 52  2  0  0  0  0
 51 53  1  0  0  0  0
 53 58  2  0  0  0  0
 53 54  1  0  0  0  0
 54 55  2  0  0  0  0
 55 56  1  0  0  0  0
 56 57  2  0  0  0  0
 57 58  1  0  0  0  0
 49 59  1  0  0  0  0
 59 67  1  0  0  0  0
 59 60  1  0  0  0  0
 60 63  1  0  0  0  0
 60 61  1  0  0  0  0
 61 62  1  0  0  0  0
 62 63  1  0  0  0  0
 63 64  1  0  0  0  0
 64 65  1  0  0  0  0
 65 66  1  1  0  0  0
 65 67  1  0  0  0  0
 67 68  1  1  0  0  0
 67 69  1  0  0  0  0
 69 70  2  0  0  0  0
 69 71  1  0  0  0  0
 71 72  1  1  0  0  0
 72 73  1  0  0  0  0
 73 74  2  0  0  0  0
 73 75  1  0  0  0  0
 71 76  1  0  0  0  0
 76 77  2  0  0  0  0
 77 78  1  0  0  0  0
 76 79  1  0  0  0  0
 79 80  1  0  0  0  0
 79 81  1  0  0  0  0
 60 82  1  6  0  0  0
 82 83  1  0  0  0  0
 83 84  2  0  0  0  0
 83 85  1  0  0  0  0
 59 86  1  6  0  0  0
 63 87  1  6  0  0  0
M  END
>  <Name>
DHA Paclitaxel

>  <CAS #>
199796-52-6

>  <human Clearance (mL/min/kg)>
0.03

>  <Primary mechanism (metabolic, biliary or renal)>
metabolic

>  <seqId>
281.0

>  <Code (mechanism and clearance degree index)>
M1

>  < Five M1 and R1 test groups>
M1_1

>  <formamide>
0

>  <prodrug phosphates>
0

>  <VolSurf_V>
2409.0

>  <VolSurf_S>
1382.41

>  <VolSurf_R>
1.74261

>  <VolSurf_G>
2.00628

>  <VolSurf_IW1>
0.0280034

>  <VolSurf_IW2>
0.0928079

>  <VolSurf_IW3>
0.148365

>  <VolSurf_IW4>
0.119216

>  <VolSurf_ID1>
0.0197298

>  <VolSurf_ID2>
0.0412343

>  <VolSurf_ID3>
0.0751831

>  <VolSurf_ID4>
0.133649

>  <VolSurf_HL1>
2.72345

>  <VolSurf_HL2>
3.41089

>  <VolSurf_A>
5.60461

>  <VolSurf_CP>
0.605157

>  <VolSurf_POL>
125.492

>  <VolSurf_MW>
1164.38

>  <VolSurf_FLEX>
5.59114

>  <VolSurf_FLEX_RB>
0.143362

>  <VolSurf_NCC>
0.0

>  <VolSurf_LOGP n-Oct>
9.0

>  <VolSurf_LOGP c-Hex>
4.486

>  <VolSurf_PSA>
230.66

>  <VolSurf_HSA>
1151.75

>  <VolSurf_PSAR>
0.166854

>  <VolSurf_PHSAR>
0.20027

>  <VolSurf_LgD5>
9.0

>  <VolSurf_LgD6>
9.0

>  <VolSurf_LgD7>
9.0

>  <VolSurf_LgD7.5>
9.0

>  <VolSurf_LgD8>
9.0

>  <VolSurf_LgD9>
9.0

>  <VolSurf_LgD10>
9.0

>  <VolSurf_AUS7.4>
2.0

>  <VolSurf_%FU4>
100.0

>  <VolSurf_%FU5>
100.0

>  <VolSurf_%FU6>
99.9999

>  <VolSurf_%FU7>
99.9993

>  <VolSurf_%FU8>
99.9928

>  <VolSurf_%FU9>
99.9284

>  <VolSurf_%FU10>
99.2888

>  <ID>
143

>  <MOKAID>
144

>  <Clearance Route>
possible billary

>  <PC1>
6.6324

>  <PC2>
-11.3394

$$$$
Diatrizoic Acid (Amidotrizoate)
  -OEChem-08301611272D

 20 20  0     0  0  0  0  0  0999 V2000
   -3.4670    1.9950    0.0000 C   0  0  0  0  0  0  0  0  0  0  0  0
   -2.5995    1.4976    0.0000 C   0  0  0  0  0  0  0  0  0  0  0  0
   -2.5966    0.4976    0.0000 O   0  0  0  0  0  0  0  0  0  0  0  0
   -1.7350    2.0001    0.0000 N   0  0  0  0  0  0  0  0  0  0  0  0
   -0.8675    1.5027    0.0000 C   0  0  0  0  0  0  0  0  0  0  0  0
   -0.8675    0.4975    0.0000 C   0  0  0  0  0  0  0  0  0  0  0  0
   -1.7328   -0.0038    0.0000 I   0  0  0  0  0  0  0  0  0  0  0  0
    0.0000    0.0000    0.0000 C   0  0  0  0  0  0  0  0  0  0  0  0
    0.0000   -1.0000    0.0000 N   0  0  0  0  0  0  0  0  0  0  0  0
    0.8660   -1.5000    0.0000 C   0  0  0  0  0  0  0  0  0  0  0  0
    1.7321   -1.0000    0.0000 O   0  0  0  0  0  0  0  0  0  0  0  0
    0.8660   -2.5000    0.0000 C   0  0  0  0  0  0  0  0  0  0  0  0
    0.8675    0.4975    0.0000 C   0  0  0  0  0  0  0  0  0  0  0  0
    1.7328   -0.0038    0.0000 I   0  0  0  0  0  0  0  0  0  0  0  0
    0.8675    1.5027    0.0000 C   0  0  0  0  0  0  0  0  0  0  0  0
    1.7350    2.0001    0.0000 C   0  0  0  0  0  0  0  0  0  0  0  0
    2.5995    1.4976    0.0000 O   0  0  0  0  0  0  0  0  0  0  0  0
    1.7379    3.0001    0.0000 O   0  0  0  0  0  0  0  0  0  0  0  0
   -0.0000    2.0104    0.0000 C   0  0  0  0  0  0  0  0  0  0  0  0
   -0.0000    3.0104    0.0000 I   0  0  0  0  0  0  0  0  0  0  0  0
  1  2  1  0  0  0  0
  2  3  2  0  0  0  0
  2  4  1  0  0  0  0
  4  5  1  0  0  0  0
  5 19  2  0  0  0  0
  5  6  1  0  0  0  0
  6  7  1  0  0  0  0
  6  8  2  0  0  0  0
  8  9  1  0  0  0  0
  9 10  1  0  0  0  0
 10 11  2  0  0  0  0
 10 12  1  0  0  0  0
  8 13  1  0  0  0  0
 13 14  1  0  0  0  0
 13 15  2  0  0  0  0
 15 16  1  0  0  0  0
 16 17  2  0  0  0  0
 16 18  1  0  0  0  0
 15 19  1  0  0  0  0
 19 20  1  0  0  0  0
M  END
>  <Name>
Diatrizoic Acid (Amidotrizoate)

>  <CAS #>
117-96-4

>  <human Clearance (mL/min/kg)>
1.7

>  <Primary mechanism (metabolic, biliary or renal)>
renal

>  <seqId>
282.0

>  <Code (mechanism and clearance degree index)>
R1

>  < Five M1 and R1 test groups>
R1_4

>  <formamide>
0

>  <prodrug phosphates>
0

>  <VolSurf_V>
704.125

>  <VolSurf_S>
470.897

>  <VolSurf_R>
1.49528

>  <VolSurf_G>
1.36463

>  <VolSurf_IW1>
0.084849

>  <VolSurf_IW2>
0.205553

>  <VolSurf_IW3>
0.479007

>  <VolSurf_IW4>
0.739687

>  <VolSurf_ID1>
0.0364745

>  <VolSurf_ID2>
0.0869852

>  <VolSurf_ID3>
0.118833

>  <VolSurf_ID4>
0.169843

>  <VolSurf_HL1>
9.24242

>  <VolSurf_HL2>
9.69863

>  <VolSurf_A>
4.28397

>  <VolSurf_CP>
0.234046

>  <VolSurf_POL>
36.453

>  <VolSurf_MW>
612.906

>  <VolSurf_FLEX>
0.801989

>  <VolSurf_FLEX_RB>
0.133665

>  <VolSurf_NCC>
1.0

>  <VolSurf_LOGP n-Oct>
0.984

>  <VolSurf_LOGP c-Hex>
-3.744

>  <VolSurf_PSA>
104.32

>  <VolSurf_HSA>
366.577

>  <VolSurf_PSAR>
0.221534

>  <VolSurf_PHSAR>
0.284578

>  <VolSurf_LgD5>
-0.561477

>  <VolSurf_LgD6>
-1.50047

>  <VolSurf_LgD7>
-2.18022

>  <VolSurf_LgD7.5>
-2.3279

>  <VolSurf_LgD8>
-2.38744

>  <VolSurf_LgD9>
-2.41485

>  <VolSurf_LgD10>
-2.41771

>  <VolSurf_AUS7.4>
0.0

>  <VolSurf_%FU4>
22.424

>  <VolSurf_%FU5>
2.80937

>  <VolSurf_%FU6>
0.288225

>  <VolSurf_%FU7>
0.0288975

>  <VolSurf_%FU8>
0.0028905

>  <VolSurf_%FU9>
2.89055E-4

>  <VolSurf_%FU10>
2.89038E-5

>  <ID>
144

>  <MOKAID>
145

>  <Clearance Route>
renal

>  <PC1>
-1.91195

>  <PC2>
-0.394462

$$$$
Diazepam
  -OEChem-08301611272D

 20 22  0     0  0  0  0  0  0999 V2000
    1.6379    3.0716    0.0000 C   0  0  0  0  0  0  0  0  0  0  0  0
    2.0794    2.1743    0.0000 N   0  0  0  0  0  0  0  0  0  0  0  0
    3.0873    2.1814    0.0000 C   0  0  0  0  0  0  0  0  0  0  0  0
    3.5119    3.0868    0.0000 O   0  0  0  0  0  0  0  0  0  0  0  0
    3.7246    1.4039    0.0000 C   0  0  0  0  0  0  0  0  0  0  0  0
    3.5069    0.4226    0.0000 N   0  0  0  0  0  0  0  0  0  0  0  0
    2.6022   -0.0243    0.0000 C   0  0  0  0  0  0  0  0  0  0  0  0
    2.6132   -1.0242    0.0000 C   0  0  0  0  0  0  0  0  0  0  0  0
    3.4907   -1.5146    0.0000 C   0  0  0  0  0  0  0  0  0  0  0  0
    3.5017   -2.5146    0.0000 C   0  0  0  0  0  0  0  0  0  0  0  0
    2.6442   -3.0292    0.0000 C   0  0  0  0  0  0  0  0  0  0  0  0
    1.7668   -2.5388    0.0000 C   0  0  0  0  0  0  0  0  0  0  0  0
    1.7468   -1.5338    0.0000 C   0  0  0  0  0  0  0  0  0  0  0  0
    1.6906    0.4013    0.0000 C   0  0  0  0  0  0  0  0  0  0  0  0
    0.9648   -0.2906    0.0000 C   0  0  0  0  0  0  0  0  0  0  0  0
    0.0000    0.0000    0.0000 C   0  0  0  0  0  0  0  0  0  0  0  0
   -0.7278   -0.6857    0.0000 Cl  0  0  0  0  0  0  0  0  0  0  0  0
   -0.2322    0.9784    0.0000 C   0  0  0  0  0  0  0  0  0  0  0  0
    0.5003    1.6662    0.0000 C   0  0  0  0  0  0  0  0  0  0  0  0
    1.4584    1.3796    0.0000 C   0  0  0  0  0  0  0  0  0  0  0  0
  1  2  1  0  0  0  0
  2 20  1  0  0  0  0
  2  3  1  0  0  0  0
  3  4  2  0  0  0  0
  3  5  1  0  0  0  0
  5  6  1  0  0  0  0
  6  7  2  0  0  0  0
  7  8  1  0  0  0  0
  8 13  2  0  0  0  0
  8  9  1  0  0  0  0
  9 10  2  0  0  0  0
 10 11  1  0  0  0  0
 11 12  2  0  0  0  0
 12 13  1  0  0  0  0
  7 14  1  0  0  0  0
 14 20  2  0  0  0  0
 14 15  1  0  0  0  0
 15 16  2  0  0  0  0
 16 17  1  0  0  0  0
 16 18  1  0  0  0  0
 18 19  2  0  0  0  0
 19 20  1  0  0  0  0
M  END
>  <Name>
Diazepam

>  <CAS #>
439-14-5

>  <human Clearance (mL/min/kg)>
0.38

>  <Primary mechanism (metabolic, biliary or renal)>
To be checked (prescribing information from Roche but referring to tablet)

>  <seqId>
283.0

>  <Code (mechanism and clearance degree index)>
M1

>  < Five M1 and R1 test groups>
M1_4

>  <formamide>
0

>  <prodrug phosphates>
0

>  <VolSurf_V>
626.75

>  <VolSurf_S>
428.195

>  <VolSurf_R>
1.4637

>  <VolSurf_G>
1.32936

>  <VolSurf_IW1>
0.111729

>  <VolSurf_IW2>
0.484275

>  <VolSurf_IW3>
1.13991

>  <VolSurf_IW4>
1.56585

>  <VolSurf_ID1>
0.0493744

>  <VolSurf_ID2>
0.0732818

>  <VolSurf_ID3>
0.063125

>  <VolSurf_ID4>
0.0608862

>  <VolSurf_HL1>
0.688088

>  <VolSurf_HL2>
0.517073

>  <VolSurf_A>
6.45658

>  <VolSurf_CP>
3.48207

>  <VolSurf_POL>
30.794

>  <VolSurf_MW>
284.74

>  <VolSurf_FLEX>
0.27561

>  <VolSurf_FLEX_RB>
0.137805

>  <VolSurf_NCC>
0.0

>  <VolSurf_LOGP n-Oct>
2.799

>  <VolSurf_LOGP c-Hex>
2.488

>  <VolSurf_PSA>
32.71

>  <VolSurf_HSA>
395.485

>  <VolSurf_PSAR>
0.0763904

>  <VolSurf_PHSAR>
0.0827085

>  <VolSurf_LgD5>
2.79363

>  <VolSurf_LgD6>
2.79846

>  <VolSurf_LgD7>
2.79895

>  <VolSurf_LgD7.5>
2.79898

>  <VolSurf_LgD8>
2.79899

>  <VolSurf_LgD9>
2.799

>  <VolSurf_LgD10>
2.799

>  <VolSurf_AUS7.4>
2.0

>  <VolSurf_%FU4>
88.9374

>  <VolSurf_%FU5>
98.7714

>  <VolSurf_%FU6>
99.8758

>  <VolSurf_%FU7>
99.9876

>  <VolSurf_%FU8>
99.9988

>  <VolSurf_%FU9>
99.9999

>  <VolSurf_%FU10>
100.0

>  <ID>
145

>  <MOKAID>
146

>  <Clearance Route>
metabolic

>  <PC1>
5.36222

>  <PC2>
2.02487

$$$$
Dibekacin
  -OEChem-08301611272D

 31 33  0     1  0  0  0  0  0999 V2000
   -2.5995    1.4976    0.0000 N   0  0  0  0  0  0  0  0  0  0  0  0
   -1.7350    2.0001    0.0000 C   0  0  0  0  0  0  0  0  0  0  0  0
   -0.8675    1.5027    0.0000 C   0  0  2  0  0  0  0  0  0  0  0  0
   -0.8675    0.4975    0.0000 C   0  0  0  0  0  0  0  0  0  0  0  0
    0.0000    0.0000    0.0000 C   0  0  0  0  0  0  0  0  0  0  0  0
    0.8675    0.4975    0.0000 C   0  0  1  0  0  0  0  0  0  0  0  0
    1.7328   -0.0038    0.0000 N   0  0  0  0  0  0  0  0  0  0  0  0
    0.8675    1.5027    0.0000 C   0  0  1  0  0  0  0  0  0  0  0  0
    1.7350    2.0001    0.0000 O   0  0  0  0  0  0  0  0  0  0  0  0
    1.7379    3.0001    0.0000 C   0  0  2  0  0  0  0  0  0  0  0  0
    0.8674    3.5027    0.0000 C   0  0  1  0  0  0  0  0  0  0  0  0
    0.0007    3.0040    0.0000 N   0  0  0  0  0  0  0  0  0  0  0  0
    0.8703    4.5028    0.0000 C   0  0  0  0  0  0  0  0  0  0  0  0
    1.7349    5.0053    0.0000 C   0  0  1  0  0  0  0  0  0  0  0  0
    1.7335    6.0053    0.0000 N   0  0  0  0  0  0  0  0  0  0  0  0
    2.6054    4.5027    0.0000 C   0  0  2  0  0  0  0  0  0  0  0  0
    3.4700    5.0052    0.0000 O   0  0  0  0  0  0  0  0  0  0  0  0
    4.3375    4.5078    0.0000 C   0  0  1  0  0  0  0  0  0  0  0  0
    4.3375    3.5027    0.0000 O   0  0  0  0  0  0  0  0  0  0  0  0
    5.2138    3.0104    0.0000 C   0  0  2  0  0  0  0  0  0  0  0  0
    5.2227    2.0104    0.0000 C   0  0  0  0  0  0  0  0  0  0  0  0
    6.0931    1.5181    0.0000 O   0  0  0  0  0  0  0  0  0  0  0  0
    6.0814    3.5181    0.0000 C   0  0  1  0  0  0  0  0  0  0  0  0
    6.9511    3.0245    0.0000 O   0  0  0  0  0  0  0  0  0  0  0  0
    6.0726    4.5181    0.0000 C   0  0  2  0  0  0  0  0  0  0  0  0
    6.9356    5.0232    0.0000 N   0  0  0  0  0  0  0  0  0  0  0  0
    5.2050    5.0155    0.0000 C   0  0  1  0  0  0  0  0  0  0  0  0
    5.2006    6.0155    0.0000 O   0  0  0  0  0  0  0  0  0  0  0  0
    2.6114    3.4976    0.0000 C   0  0  1  0  0  0  0  0  0  0  0  0
    3.4774    2.9976    0.0000 O   0  0  0  0  0  0  0  0  0  0  0  0
   -0.0000    2.0104    0.0000 O   0  0  0  0  0  0  0  0  0  0  0  0
  1  2  1  0  0  0  0
  3  2  1  1  0  0  0
  3 31  1  0  0  0  0
  3  4  1  0  0  0  0
  4  5  1  0  0  0  0
  5  6  1  0  0  0  0
  6  7  1  6  0  0  0
  6  8  1  0  0  0  0
  8  9  1  6  0  0  0
 10  9  1  6  0  0  0
 10 29  1  0  0  0  0
 10 11  1  0  0  0  0
 11 12  1  1  0  0  0
 11 13  1  0  0  0  0
 13 14  1  0  0  0  0
 14 15  1  1  0  0  0
 14 16  1  0  0  0  0
 16 17  1  6  0  0  0
 18 17  1  6  0  0  0
 18 27  1  0  0  0  0
 18 19  1  0  0  0  0
 19 20  1  0  0  0  0
 20 21  1  1  0  0  0
 21 22  1  0  0  0  0
 20 23  1  0  0  0  0
 23 24  1  6  0  0  0
 23 25  1  0  0  0  0
 25 26  1  1  0  0  0
 25 27  1  0  0  0  0
 27 28  1  6  0  0  0
 16 29  1  0  0  0  0
 29 30  1  1  0  0  0
  8 31  1  0  0  0  0
M  END
>  <Name>
Dibekacin

>  <CAS #>
34493-98-6

>  <human Clearance (mL/min/kg)>
0.8

>  <Primary mechanism (metabolic, biliary or renal)>
renal

>  <seqId>
285.0

>  <Code (mechanism and clearance degree index)>
R1

>  < Five M1 and R1 test groups>
R1_2

>  <formamide>
0

>  <prodrug phosphates>
0

>  <VolSurf_V>
853.25

>  <VolSurf_S>
579.299

>  <VolSurf_R>
1.4729

>  <VolSurf_G>
1.53657

>  <VolSurf_IW1>
0.0374669

>  <VolSurf_IW2>
0.0511402

>  <VolSurf_IW3>
0.111418

>  <VolSurf_IW4>
0.302106

>  <VolSurf_ID1>
0.119468

>  <VolSurf_ID2>
0.203522

>  <VolSurf_ID3>
0.0

>  <VolSurf_ID4>
0.0

>  <VolSurf_HL1>
477.0

>  <VolSurf_HL2>
392.5

>  <VolSurf_A>
8.06204

>  <VolSurf_CP>
0.00161302

>  <VolSurf_POL>
47.179

>  <VolSurf_MW>
453.531

>  <VolSurf_FLEX>
2.0504

>  <VolSurf_FLEX_RB>
0.136694

>  <VolSurf_NCC>
2.0

>  <VolSurf_LOGP n-Oct>
-5.951

>  <VolSurf_LOGP c-Hex>
-6.347

>  <VolSurf_PSA>
278.32

>  <VolSurf_HSA>
300.979

>  <VolSurf_PSAR>
0.480443

>  <VolSurf_PHSAR>
0.924715

>  <VolSurf_LgD5>
-9.0

>  <VolSurf_LgD6>
-9.0

>  <VolSurf_LgD7>
-9.0

>  <VolSurf_LgD7.5>
-7.8271

>  <VolSurf_LgD8>
-6.98078

>  <VolSurf_LgD9>
-6.15289

>  <VolSurf_LgD10>
-5.97521

>  <VolSurf_AUS7.4>
0.17658

>  <VolSurf_%FU4>
3.8183E-14

>  <VolSurf_%FU5>
1.6952E-9

>  <VolSurf_%FU6>
2.26673E-5

>  <VolSurf_%FU7>
0.0744693

>  <VolSurf_%FU8>
9.30764

>  <VolSurf_%FU9>
62.8013

>  <VolSurf_%FU10>
94.576

>  <ID>
146

>  <MOKAID>
147

>  <Clearance Route>
renal

>  <PC1>
-9.03181

>  <PC2>
0.292768

$$$$
Dilevalol
  -OEChem-08301611272D

 24 25  0     1  0  0  0  0  0999 V2000
    3.4700    2.9950    0.0000 C   0  0  0  0  0  0  0  0  0  0  0  0
    2.6054    3.4976    0.0000 C   0  0  2  0  0  0  0  0  0  0  0  0
    1.7379    3.0001    0.0000 C   0  0  0  0  0  0  0  0  0  0  0  0
    1.7350    2.0001    0.0000 C   0  0  0  0  0  0  0  0  0  0  0  0
    0.8675    1.5027    0.0000 C   0  0  0  0  0  0  0  0  0  0  0  0
    0.8675    0.4975    0.0000 C   0  0  0  0  0  0  0  0  0  0  0  0
    0.0000    0.0000    0.0000 C   0  0  0  0  0  0  0  0  0  0  0  0
   -0.8675    0.4975    0.0000 C   0  0  0  0  0  0  0  0  0  0  0  0
   -0.8675    1.5027    0.0000 C   0  0  0  0  0  0  0  0  0  0  0  0
    0.0000    2.0104    0.0000 C   0  0  0  0  0  0  0  0  0  0  0  0
    2.6084    4.4976    0.0000 N   0  0  0  0  0  0  0  0  0  0  0  0
    3.4759    4.9950    0.0000 C   0  0  0  0  0  0  0  0  0  0  0  0
    3.4788    5.9950    0.0000 C   0  0  2  0  0  0  0  0  0  0  0  0
    2.6143    6.4976    0.0000 O   0  0  0  0  0  0  0  0  0  0  0  0
    4.3463    6.4925    0.0000 C   0  0  0  0  0  0  0  0  0  0  0  0
    5.2139    5.9847    0.0000 C   0  0  0  0  0  0  0  0  0  0  0  0
    6.0814    6.4821    0.0000 C   0  0  0  0  0  0  0  0  0  0  0  0
    6.0902    7.4821    0.0000 C   0  0  0  0  0  0  0  0  0  0  0  0
    6.9599    7.9758    0.0000 O   0  0  0  0  0  0  0  0  0  0  0  0
    5.2227    7.9899    0.0000 C   0  0  0  0  0  0  0  0  0  0  0  0
    4.3463    7.4976    0.0000 C   0  0  0  0  0  0  0  0  0  0  0  0
    5.2315    8.9898    0.0000 C   0  0  0  0  0  0  0  0  0  0  0  0
    6.1020    9.4821    0.0000 O   0  0  0  0  0  0  0  0  0  0  0  0
    4.3700    9.4975    0.0000 N   0  0  0  0  0  0  0  0  0  0  0  0
  2  1  1  6  0  0  0
  2  3  1  0  0  0  0
  3  4  1  0  0  0  0
  4  5  1  0  0  0  0
  5 10  2  0  0  0  0
  5  6  1  0  0  0  0
  6  7  2  0  0  0  0
  7  8  1  0  0  0  0
  8  9  2  0  0  0  0
  9 10  1  0  0  0  0
  2 11  1  0  0  0  0
 11 12  1  0  0  0  0
 12 13  1  0  0  0  0
 13 14  1  6  0  0  0
 13 15  1  0  0  0  0
 15 21  2  0  0  0  0
 15 16  1  0  0  0  0
 16 17  2  0  0  0  0
 17 18  1  0  0  0  0
 18 19  1  0  0  0  0
 18 20  2  0  0  0  0
 20 21  1  0  0  0  0
 20 22  1  0  0  0  0
 22 23  2  0  0  0  0
 22 24  1  0  0  0  0
M  END
>  <Name>
Dilevalol

>  <CAS #>
75659-07-3

>  <human Clearance (mL/min/kg)>
29.0

>  <Primary mechanism (metabolic, biliary or renal)>
metabolic

>  <seqId>
295.0

>  <Code (mechanism and clearance degree index)>
M1

>  < Five M1 and R1 test groups>
M1_4

>  <formamide>
0

>  <prodrug phosphates>
0

>  <VolSurf_V>
785.75

>  <VolSurf_S>
543.472

>  <VolSurf_R>
1.4458

>  <VolSurf_G>
1.5162

>  <VolSurf_IW1>
0.141427

>  <VolSurf_IW2>
0.464529

>  <VolSurf_IW3>
0.895768

>  <VolSurf_IW4>
1.13869

>  <VolSurf_ID1>
0.0784084

>  <VolSurf_ID2>
0.0904909

>  <VolSurf_ID3>
0.0999646

>  <VolSurf_ID4>
0.221873

>  <VolSurf_HL1>
1.78279

>  <VolSurf_HL2>
1.87698

>  <VolSurf_A>
7.28096

>  <VolSurf_CP>
0.940718

>  <VolSurf_POL>
39.759

>  <VolSurf_MW>
329.413

>  <VolSurf_FLEX>
2.55995

>  <VolSurf_FLEX_RB>
0.213329

>  <VolSurf_NCC>
1.0

>  <VolSurf_LOGP n-Oct>
1.801

>  <VolSurf_LOGP c-Hex>
-0.0829998

>  <VolSurf_PSA>
107.13

>  <VolSurf_HSA>
436.342

>  <VolSurf_PSAR>
0.197121

>  <VolSurf_PHSAR>
0.245518

>  <VolSurf_LgD5>
-1.1497

>  <VolSurf_LgD6>
-0.299074

>  <VolSurf_LgD7>
0.65398

>  <VolSurf_LgD7.5>
1.08662

>  <VolSurf_LgD8>
1.40742

>  <VolSurf_LgD9>
1.35202

>  <VolSurf_LgD10>
0.578564

>  <VolSurf_AUS7.4>
1.22276

>  <VolSurf_%FU4>
0.00764565

>  <VolSurf_%FU5>
0.0764039

>  <VolSurf_%FU6>
0.758812

>  <VolSurf_%FU7>
7.09452

>  <VolSurf_%FU8>
40.3503

>  <VolSurf_%FU9>
35.2618

>  <VolSurf_%FU10>
5.52026

>  <ID>
147

>  <MOKAID>
148

>  <Clearance Route>
metabolic

>  <PC1>
0.803369

>  <PC2>
0.9095

$$$$
Diltiazem
  -OEChem-08301611272D

 29 31  0     1  0  0  0  0  0999 V2000
   -3.0532   -3.8890    0.0000 C   0  0  0  0  0  0  0  0  0  0  0  0
   -2.0650   -4.0426    0.0000 O   0  0  0  0  0  0  0  0  0  0  0  0
   -1.4380   -3.2636    0.0000 C   0  0  0  0  0  0  0  0  0  0  0  0
   -1.8037   -2.3273    0.0000 C   0  0  0  0  0  0  0  0  0  0  0  0
   -1.1767   -1.5482    0.0000 C   0  0  0  0  0  0  0  0  0  0  0  0
   -0.1876   -1.6960    0.0000 C   0  0  0  0  0  0  0  0  0  0  0  0
    0.1781   -2.6323    0.0000 C   0  0  0  0  0  0  0  0  0  0  0  0
   -0.4452   -3.4209    0.0000 C   0  0  0  0  0  0  0  0  0  0  0  0
    0.4360   -0.9143    0.0000 C   0  0  2  0  0  0  0  0  0  0  0  0
    1.4241   -1.1362    0.0000 S   0  0  0  0  0  0  0  0  0  0  0  0
    2.2192   -0.5026    0.0000 C   0  0  0  0  0  0  0  0  0  0  0  0
    3.0837   -1.0052    0.0000 C   0  0  0  0  0  0  0  0  0  0  0  0
    3.9567   -0.5076    0.0000 C   0  0  0  0  0  0  0  0  0  0  0  0
    3.9596    0.4979    0.0000 C   0  0  0  0  0  0  0  0  0  0  0  0
    3.0895    1.0060    0.0000 C   0  0  0  0  0  0  0  0  0  0  0  0
    2.2220    0.5029    0.0000 C   0  0  0  0  0  0  0  0  0  0  0  0
    1.4290    1.1418    0.0000 N   0  0  0  0  0  0  0  0  0  0  0  0
    1.6540    2.1161    0.0000 C   0  0  0  0  0  0  0  0  0  0  0  0
    0.9228    2.7982    0.0000 C   0  0  0  0  0  0  0  0  0  0  0  0
    1.1478    3.7726    0.0000 N   0  0  0  0  0  0  0  0  0  0  0  0
    0.4165    4.4546    0.0000 C   0  0  0  0  0  0  0  0  0  0  0  0
    2.1041    4.0648    0.0000 C   0  0  0  0  0  0  0  0  0  0  0  0
    0.4384    0.9159    0.0000 C   0  0  0  0  0  0  0  0  0  0  0  0
   -0.1859    1.6971    0.0000 O   0  0  0  0  0  0  0  0  0  0  0  0
    0.0000    0.0000    0.0000 C   0  0  2  0  0  0  0  0  0  0  0  0
   -1.7500    0.0013    0.0000 O   0  0  0  0  0  0  0  0  0  0  0  0
   -2.2494    0.8677    0.0000 C   0  0  0  0  0  0  0  0  0  0  0  0
   -1.7487    1.7333    0.0000 O   0  0  0  0  0  0  0  0  0  0  0  0
   -3.2494    0.8684    0.0000 C   0  0  0  0  0  0  0  0  0  0  0  0
  1  2  1  0  0  0  0
  2  3  1  0  0  0  0
  3  8  2  0  0  0  0
  3  4  1  0  0  0  0
  4  5  2  0  0  0  0
  5  6  1  0  0  0  0
  6  7  2  0  0  0  0
  7  8  1  0  0  0  0
  9  6  1  1  0  0  0
  9 25  1  0  0  0  0
  9 10  1  0  0  0  0
 10 11  1  0  0  0  0
 11 16  2  0  0  0  0
 11 12  1  0  0  0  0
 12 13  2  0  0  0  0
 13 14  1  0  0  0  0
 14 15  2  0  0  0  0
 15 16  1  0  0  0  0
 16 17  1  0  0  0  0
 17 18  1  0  0  0  0
 18 19  1  0  0  0  0
 19 20  1  0  0  0  0
 20 21  1  0  0  0  0
 20 22  1  0  0  0  0
 17 23  1  0  0  0  0
 23 24  2  0  0  0  0
 23 25  1  0  0  0  0
 25 26  1  1  0  0  0
 26 27  1  0  0  0  0
 27 28  2  0  0  0  0
 27 29  1  0  0  0  0
M  END
>  <Name>
Diltiazem

>  <CAS #>
42399-41-7

>  <human Clearance (mL/min/kg)>
13.0

>  <Primary mechanism (metabolic, biliary or renal)>
metabolic

>  <seqId>
296.0

>  <Code (mechanism and clearance degree index)>
M1

>  < Five M1 and R1 test groups>
M1_2

>  <formamide>
0

>  <prodrug phosphates>
0

>  <VolSurf_V>
911.5

>  <VolSurf_S>
599.15

>  <VolSurf_R>
1.52132

>  <VolSurf_G>
1.51293

>  <VolSurf_IW1>
0.0568235

>  <VolSurf_IW2>
0.187742

>  <VolSurf_IW3>
0.535011

>  <VolSurf_IW4>
0.706032

>  <VolSurf_ID1>
0.0450238

>  <VolSurf_ID2>
0.0926898

>  <VolSurf_ID3>
0.150118

>  <VolSurf_ID4>
0.221398

>  <VolSurf_HL1>
2.06761

>  <VolSurf_HL2>
1.92929

>  <VolSurf_A>
6.14643

>  <VolSurf_CP>
0.66207

>  <VolSurf_POL>
46.276

>  <VolSurf_MW>
415.526

>  <VolSurf_FLEX>
1.36539

>  <VolSurf_FLEX_RB>
0.124126

>  <VolSurf_NCC>
1.0

>  <VolSurf_LOGP n-Oct>
3.128

>  <VolSurf_LOGP c-Hex>
3.613

>  <VolSurf_PSA>
80.99

>  <VolSurf_HSA>
518.16

>  <VolSurf_PSAR>
0.135175

>  <VolSurf_PHSAR>
0.156303

>  <VolSurf_LgD5>
0.537422

>  <VolSurf_LgD6>
1.5163

>  <VolSurf_LgD7>
2.42899

>  <VolSurf_LgD7.5>
2.77287

>  <VolSurf_LgD8>
2.98182

>  <VolSurf_LgD9>
3.11096

>  <VolSurf_LgD10>
3.12627

>  <VolSurf_AUS7.4>
1.59397

>  <VolSurf_%FU4>
0.0249812

>  <VolSurf_%FU5>
0.249252

>  <VolSurf_%FU6>
2.43783

>  <VolSurf_%FU7>
19.992

>  <VolSurf_%FU8>
71.4183

>  <VolSurf_%FU9>
96.152

>  <VolSurf_%FU10>
99.6014

>  <ID>
148

>  <MOKAID>
149

>  <Clearance Route>
metabolic

>  <PC1>
2.77339

>  <PC2>
-1.2671299999999999

$$$$
Diphenhydramine
  -OEChem-08301611272D

 19 20  0     0  0  0  0  0  0999 V2000
    4.3227   -1.5075    0.0000 C   0  0  0  0  0  0  0  0  0  0  0  0
    3.4582   -1.0050    0.0000 N   0  0  0  0  0  0  0  0  0  0  0  0
    2.5907   -1.5024    0.0000 C   0  0  0  0  0  0  0  0  0  0  0  0
    3.4611   -0.0050    0.0000 C   0  0  0  0  0  0  0  0  0  0  0  0
    2.5966    0.4976    0.0000 C   0  0  0  0  0  0  0  0  0  0  0  0
    2.5995    1.4976    0.0000 O   0  0  0  0  0  0  0  0  0  0  0  0
    1.7350    2.0001    0.0000 C   0  0  0  0  0  0  0  0  0  0  0  0
    0.8675    1.5027    0.0000 C   0  0  0  0  0  0  0  0  0  0  0  0
    0.8675    0.4975    0.0000 C   0  0  0  0  0  0  0  0  0  0  0  0
    0.0000    0.0000    0.0000 C   0  0  0  0  0  0  0  0  0  0  0  0
   -0.8675    0.4975    0.0000 C   0  0  0  0  0  0  0  0  0  0  0  0
   -0.8675    1.5027    0.0000 C   0  0  0  0  0  0  0  0  0  0  0  0
    0.0000    2.0104    0.0000 C   0  0  0  0  0  0  0  0  0  0  0  0
    1.7379    3.0001    0.0000 C   0  0  0  0  0  0  0  0  0  0  0  0
    0.8674    3.5027    0.0000 C   0  0  0  0  0  0  0  0  0  0  0  0
    0.8703    4.5028    0.0000 C   0  0  0  0  0  0  0  0  0  0  0  0
    1.7349    5.0053    0.0000 C   0  0  0  0  0  0  0  0  0  0  0  0
    2.6054    4.5027    0.0000 C   0  0  0  0  0  0  0  0  0  0  0  0
    2.6114    3.4976    0.0000 C   0  0  0  0  0  0  0  0  0  0  0  0
  1  2  1  0  0  0  0
  2  3  1  0  0  0  0
  2  4  1  0  0  0  0
  4  5  1  0  0  0  0
  5  6  1  0  0  0  0
  6  7  1  0  0  0  0
  7  8  1  0  0  0  0
  8 13  2  0  0  0  0
  8  9  1  0  0  0  0
  9 10  2  0  0  0  0
 10 11  1  0  0  0  0
 11 12  2  0  0  0  0
 12 13  1  0  0  0  0
  7 14  1  0  0  0  0
 14 19  2  0  0  0  0
 14 15  1  0  0  0  0
 15 16  2  0  0  0  0
 16 17  1  0  0  0  0
 17 18  2  0  0  0  0
 18 19  1  0  0  0  0
M  END
>  <Name>
Diphenhydramine

>  <CAS #>
58-73-1

>  <human Clearance (mL/min/kg)>
9.8

>  <Primary mechanism (metabolic, biliary or renal)>
metabolic

>  <seqId>
297.0

>  <Code (mechanism and clearance degree index)>
M1

>  < Five M1 and R1 test groups>
M1_4

>  <formamide>
0

>  <prodrug phosphates>
0

>  <VolSurf_V>
687.125

>  <VolSurf_S>
478.948

>  <VolSurf_R>
1.43466

>  <VolSurf_G>
1.4344

>  <VolSurf_IW1>
0.0128687

>  <VolSurf_IW2>
0.158514

>  <VolSurf_IW3>
0.402199

>  <VolSurf_IW4>
0.556657

>  <VolSurf_ID1>
0.0330158

>  <VolSurf_ID2>
0.123071

>  <VolSurf_ID3>
0.262601

>  <VolSurf_ID4>
0.407803

>  <VolSurf_HL1>
0.481481

>  <VolSurf_HL2>
0.524194

>  <VolSurf_A>
4.81369

>  <VolSurf_CP>
1.62984

>  <VolSurf_POL>
33.18

>  <VolSurf_MW>
256.363

>  <VolSurf_FLEX>
1.72111

>  <VolSurf_FLEX_RB>
0.215139

>  <VolSurf_NCC>
1.0

>  <VolSurf_LOGP n-Oct>
3.473

>  <VolSurf_LOGP c-Hex>
3.161

>  <VolSurf_PSA>
23.94

>  <VolSurf_HSA>
455.008

>  <VolSurf_PSAR>
0.0499846

>  <VolSurf_PHSAR>
0.0526145

>  <VolSurf_LgD5>
0.0356285

>  <VolSurf_LgD6>
0.946258

>  <VolSurf_LgD7>
1.92518

>  <VolSurf_LgD7.5>
2.39866

>  <VolSurf_LgD8>
2.82578

>  <VolSurf_LgD9>
3.34463

>  <VolSurf_LgD10>
3.45831

>  <VolSurf_AUS7.4>
0.875414

>  <VolSurf_%FU4>
0.00290735

>  <VolSurf_%FU5>
0.0290659

>  <VolSurf_%FU6>
0.289901

>  <VolSurf_%FU7>
2.82529

>  <VolSurf_%FU8>
22.5253

>  <VolSurf_%FU9>
74.4078

>  <VolSurf_%FU10>
96.6749

>  <ID>
149

>  <MOKAID>
150

>  <Clearance Route>
metabolic

>  <PC1>
2.97884

>  <PC2>
0.675067

$$$$
Diprophylline
  -OEChem-08301611272D

 18 19  0     1  0  0  0  0  0999 V2000
   -1.7355   -0.0104    0.0000 C   0  0  0  0  0  0  0  0  0  0  0  0
   -0.8680   -0.5079    0.0000 N   0  0  0  0  0  0  0  0  0  0  0  0
   -0.8680   -1.5137    0.0000 C   0  0  0  0  0  0  0  0  0  0  0  0
   -1.7333   -2.0149    0.0000 O   0  0  0  0  0  0  0  0  0  0  0  0
   -0.0000   -2.0116    0.0000 N   0  0  0  0  0  0  0  0  0  0  0  0
   -0.0006   -3.0116    0.0000 C   0  0  0  0  0  0  0  0  0  0  0  0
    0.8680   -1.5150    0.0000 C   0  0  0  0  0  0  0  0  0  0  0  0
    1.8258   -1.8263    0.0000 N   0  0  0  0  0  0  0  0  0  0  0  0
    2.4178   -1.0115    0.0000 C   0  0  0  0  0  0  0  0  0  0  0  0
    1.8258   -0.1969    0.0000 N   0  0  0  0  0  0  0  0  0  0  0  0
    2.1348    0.7541    0.0000 C   0  0  0  0  0  0  0  0  0  0  0  0
    3.1130    0.9620    0.0000 C   0  0  3  0  0  0  0  0  0  0  0  0
    3.7821    0.2189    0.0000 O   0  0  0  0  0  0  0  0  0  0  0  0
    3.4221    1.9131    0.0000 C   0  0  0  0  0  0  0  0  0  0  0  0
    4.4002    2.1209    0.0000 O   0  0  0  0  0  0  0  0  0  0  0  0
    0.8680   -0.5079    0.0000 C   0  0  0  0  0  0  0  0  0  0  0  0
    0.0000    0.0000    0.0000 C   0  0  0  0  0  0  0  0  0  0  0  0
    0.0000    1.0000    0.0000 O   0  0  0  0  0  0  0  0  0  0  0  0
  1  2  1  0  0  0  0
  2 17  1  0  0  0  0
  2  3  1  0  0  0  0
  3  4  2  0  0  0  0
  3  5  1  0  0  0  0
  5  6  1  0  0  0  0
  5  7  1  0  0  0  0
  7 16  2  0  0  0  0
  7  8  1  0  0  0  0
  8  9  2  0  0  0  0
  9 10  1  0  0  0  0
 10 11  1  0  0  0  0
 11 12  1  0  0  0  0
 12 13  1  0  0  0  0
 12 14  1  0  0  0  0
 14 15  1  0  0  0  0
 10 16  1  0  0  0  0
 16 17  1  0  0  0  0
 17 18  2  0  0  0  0
M  END
>  <Name>
Diprophylline

>  <CAS #>
479-18-5

>  <human Clearance (mL/min/kg)>
4.8

>  <Primary mechanism (metabolic, biliary or renal)>
renal

>  <seqId>
299.0

>  <Code (mechanism and clearance degree index)>
R1

>  < Five M1 and R1 test groups>
R1_5

>  <formamide>
0

>  <prodrug phosphates>
0

>  <VolSurf_V>
517.0

>  <VolSurf_S>
371.864

>  <VolSurf_R>
1.39029

>  <VolSurf_G>
1.30425

>  <VolSurf_IW1>
0.0752882

>  <VolSurf_IW2>
0.125273

>  <VolSurf_IW3>
0.296082

>  <VolSurf_IW4>
0.284977

>  <VolSurf_ID1>
0.0980456

>  <VolSurf_ID2>
0.150191

>  <VolSurf_ID3>
0.178066

>  <VolSurf_ID4>
0.2082

>  <VolSurf_HL1>
4.16107

>  <VolSurf_HL2>
2.43651

>  <VolSurf_A>
2.99222

>  <VolSurf_CP>
0.566485

>  <VolSurf_POL>
23.613

>  <VolSurf_MW>
254.242

>  <VolSurf_FLEX>
0.92529

>  <VolSurf_FLEX_RB>
0.132184

>  <VolSurf_NCC>
0.0

>  <VolSurf_LOGP n-Oct>
-1.232

>  <VolSurf_LOGP c-Hex>
-6.696

>  <VolSurf_PSA>
96.26

>  <VolSurf_HSA>
275.604

>  <VolSurf_PSAR>
0.258858

>  <VolSurf_PHSAR>
0.349269

>  <VolSurf_LgD5>
-1.23213

>  <VolSurf_LgD6>
-1.23201

>  <VolSurf_LgD7>
-1.232

>  <VolSurf_LgD7.5>
-1.23201

>  <VolSurf_LgD8>
-1.23202

>  <VolSurf_LgD9>
-1.23217

>  <VolSurf_LgD10>
-1.2337

>  <VolSurf_AUS7.4>
2.0

>  <VolSurf_%FU4>
99.7

>  <VolSurf_%FU5>
99.9699

>  <VolSurf_%FU6>
99.997

>  <VolSurf_%FU7>
99.9993

>  <VolSurf_%FU8>
99.9961

>  <VolSurf_%FU9>
99.9609

>  <VolSurf_%FU10>
99.6103

>  <ID>
150

>  <MOKAID>
151

>  <Clearance Route>
uncertain

>  <PC1>
0.280565

>  <PC2>
2.59828

$$$$
Disopyramide
  -OEChem-08301611272D

 25 26  0     1  0  0  0  0  0999 V2000
    0.3958    5.8432    0.0000 C   0  0  0  0  0  0  0  0  0  0  0  0
    0.8933    4.9757    0.0000 C   0  0  0  0  0  0  0  0  0  0  0  0
    1.8933    4.9728    0.0000 C   0  0  0  0  0  0  0  0  0  0  0  0
    0.3907    4.1112    0.0000 N   0  0  0  0  0  0  0  0  0  0  0  0
    0.8882    3.2437    0.0000 C   0  0  0  0  0  0  0  0  0  0  0  0
    1.8882    3.2407    0.0000 C   0  0  0  0  0  0  0  0  0  0  0  0
    2.3856    2.3732    0.0000 C   0  0  3  0  0  0  0  0  0  0  0  0
    2.8831    1.5057    0.0000 C   0  0  0  0  0  0  0  0  0  0  0  0
    2.3805    0.6412    0.0000 O   0  0  0  0  0  0  0  0  0  0  0  0
    3.8831    1.5028    0.0000 N   0  0  0  0  0  0  0  0  0  0  0  0
    3.9037    3.2437    0.0000 C   0  0  0  0  0  0  0  0  0  0  0  0
    3.9037    4.2489    0.0000 C   0  0  0  0  0  0  0  0  0  0  0  0
    4.7712    4.7464    0.0000 C   0  0  0  0  0  0  0  0  0  0  0  0
    5.6387    4.2489    0.0000 C   0  0  0  0  0  0  0  0  0  0  0  0
    5.6387    3.2437    0.0000 C   0  0  0  0  0  0  0  0  0  0  0  0
    4.7712    2.7360    0.0000 C   0  0  0  0  0  0  0  0  0  0  0  0
    0.8675    1.5027    0.0000 C   0  0  0  0  0  0  0  0  0  0  0  0
    0.8675    0.4975    0.0000 C   0  0  0  0  0  0  0  0  0  0  0  0
    0.0000    0.0000    0.0000 C   0  0  0  0  0  0  0  0  0  0  0  0
   -0.8675    0.4975    0.0000 C   0  0  0  0  0  0  0  0  0  0  0  0
   -0.8675    1.5027    0.0000 C   0  0  0  0  0  0  0  0  0  0  0  0
    0.0000    2.0104    0.0000 N   0  0  0  0  0  0  0  0  0  0  0  0
   -0.6093    4.1141    0.0000 C   0  0  0  0  0  0  0  0  0  0  0  0
   -1.1118    3.2496    0.0000 C   0  0  0  0  0  0  0  0  0  0  0  0
   -1.1067    4.9816    0.0000 C   0  0  0  0  0  0  0  0  0  0  0  0
  1  2  1  0  0  0  0
  2  3  1  0  0  0  0
  2  4  1  0  0  0  0
  4  5  1  0  0  0  0
  5  6  1  0  0  0  0
  6  7  1  0  0  0  0
  7  8  1  0  0  0  0
  8  9  2  0  0  0  0
  8 10  1  0  0  0  0
  7 11  1  0  0  0  0
 11 16  2  0  0  0  0
 11 12  1  0  0  0  0
 12 13  2  0  0  0  0
 13 14  1  0  0  0  0
 14 15  2  0  0  0  0
 15 16  1  0  0  0  0
  7 17  1  0  0  0  0
 17 22  2  0  0  0  0
 17 18  1  0  0  0  0
 18 19  2  0  0  0  0
 19 20  1  0  0  0  0
 20 21  2  0  0  0  0
 21 22  1  0  0  0  0
  4 23  1  0  0  0  0
 23 24  1  0  0  0  0
 23 25  1  0  0  0  0
M  END
>  <Name>
Disopyramide

>  <CAS #>
3737-09-5

>  <human Clearance (mL/min/kg)>
0.9

>  <Primary mechanism (metabolic, biliary or renal)>
renal

>  <seqId>
300.0

>  <Code (mechanism and clearance degree index)>
R1

>  < Five M1 and R1 test groups>
R1_4

>  <formamide>
0

>  <prodrug phosphates>
0

>  <VolSurf_V>
821.5

>  <VolSurf_S>
537.568

>  <VolSurf_R>
1.52818

>  <VolSurf_G>
1.42664

>  <VolSurf_IW1>
0.0638902

>  <VolSurf_IW2>
0.234052

>  <VolSurf_IW3>
0.551849

>  <VolSurf_IW4>
0.871416

>  <VolSurf_ID1>
0.00636397

>  <VolSurf_ID2>
0.0258723

>  <VolSurf_ID3>
0.0960681

>  <VolSurf_ID4>
0.157981

>  <VolSurf_HL1>
1.86312

>  <VolSurf_HL2>
2.08333

>  <VolSurf_A>
2.61695

>  <VolSurf_CP>
2.4465

>  <VolSurf_POL>
42.281

>  <VolSurf_MW>
340.482

>  <VolSurf_FLEX>
2.01602

>  <VolSurf_FLEX_RB>
0.155079

>  <VolSurf_NCC>
1.0

>  <VolSurf_LOGP n-Oct>
2.215

>  <VolSurf_LOGP c-Hex>
1.699

>  <VolSurf_PSA>
67.13

>  <VolSurf_HSA>
470.438

>  <VolSurf_PSAR>
0.124877

>  <VolSurf_PHSAR>
0.142697

>  <VolSurf_LgD5>
-1.35946

>  <VolSurf_LgD6>
-1.10065

>  <VolSurf_LgD7>
-0.461885

>  <VolSurf_LgD7.5>
-0.009669

>  <VolSurf_LgD8>
0.469359

>  <VolSurf_LgD9>
1.3986

>  <VolSurf_LgD10>
2.02292

>  <VolSurf_AUS7.4>
0.0603131

>  <VolSurf_%FU4>
4.99297E-5

>  <VolSurf_%FU5>
0.00142647

>  <VolSurf_%FU6>
0.017515

>  <VolSurf_%FU7>
0.178948

>  <VolSurf_%FU8>
1.76516

>  <VolSurf_%FU9>
15.2348

>  <VolSurf_%FU10>
64.2457

>  <ID>
151

>  <MOKAID>
152

>  <Clearance Route>
possible billary

>  <PC1>
0.429282

>  <PC2>
-0.688308

$$$$
Distigmine
  -OEChem-08301611272D

 30 31  0     0  0  0  0  0  0999 V2000
    0.8675    0.4975    0.0000 C   0  0  0  0  0  0  0  0  0  0  0  0
    1.7328   -0.0038    0.0000 O   0  0  0  0  0  0  0  0  0  0  0  0
    2.5995    0.4950    0.0000 C   0  0  0  0  0  0  0  0  0  0  0  0
    3.4648   -0.0063    0.0000 N   0  0  0  0  0  0  0  0  0  0  0  0
    4.3316    0.4925    0.0000 C   0  0  0  0  0  0  0  0  0  0  0  0
    5.1969   -0.0088    0.0000 C   0  0  0  0  0  0  0  0  0  0  0  0
    6.0636    0.4900    0.0000 C   0  0  0  0  0  0  0  0  0  0  0  0
    6.9289   -0.0113    0.0000 C   0  0  0  0  0  0  0  0  0  0  0  0
    7.7957    0.4875    0.0000 C   0  0  0  0  0  0  0  0  0  0  0  0
    8.6610   -0.0138    0.0000 C   0  0  0  0  0  0  0  0  0  0  0  0
    9.5277    0.4849    0.0000 N   0  0  0  0  0  0  0  0  0  0  0  0
   10.3930   -0.0163    0.0000 C   0  0  0  0  0  0  0  0  0  0  0  0
   11.2598    0.4824    0.0000 O   0  0  0  0  0  0  0  0  0  0  0  0
   12.1251   -0.0188    0.0000 C   0  0  0  0  0  0  0  0  0  0  0  0
   12.1251   -1.0240    0.0000 C   0  0  0  0  0  0  0  0  0  0  0  0
   12.9926   -1.5317    0.0000 N   0  3  0  0  0  0  0  0  0  0  0  0
   13.8601   -1.0240    0.0000 C   0  0  0  0  0  0  0  0  0  0  0  0
   13.8601   -0.0188    0.0000 C   0  0  0  0  0  0  0  0  0  0  0  0
   12.9926    0.4787    0.0000 C   0  0  0  0  0  0  0  0  0  0  0  0
   12.9926   -2.5317    0.0000 C   0  0  0  0  0  0  0  0  0  0  0  0
   10.3916   -1.0163    0.0000 O   0  0  0  0  0  0  0  0  0  0  0  0
    9.5292    1.4849    0.0000 C   0  0  0  0  0  0  0  0  0  0  0  0
    3.4634   -1.0063    0.0000 C   0  0  0  0  0  0  0  0  0  0  0  0
    2.6010    1.4950    0.0000 O   0  0  0  0  0  0  0  0  0  0  0  0
    0.8675    1.5027    0.0000 C   0  0  0  0  0  0  0  0  0  0  0  0
   -0.0000    2.0104    0.0000 N   0  3  0  0  0  0  0  0  0  0  0  0
   -0.8675    1.5027    0.0000 C   0  0  0  0  0  0  0  0  0  0  0  0
   -0.8675    0.4975    0.0000 C   0  0  0  0  0  0  0  0  0  0  0  0
    0.0000    0.0000    0.0000 C   0  0  0  0  0  0  0  0  0  0  0  0
   -0.0000    3.0104    0.0000 C   0  0  0  0  0  0  0  0  0  0  0  0
  1 29  2  0  0  0  0
  1  2  1  0  0  0  0
  2  3  1  0  0  0  0
  3  4  1  0  0  0  0
  4  5  1  0  0  0  0
  5  6  1  0  0  0  0
  6  7  1  0  0  0  0
  7  8  1  0  0  0  0
  8  9  1  0  0  0  0
  9 10  1  0  0  0  0
 10 11  1  0  0  0  0
 11 12  1  0  0  0  0
 12 13  1  0  0  0  0
 13 14  1  0  0  0  0
 14 19  2  0  0  0  0
 14 15  1  0  0  0  0
 15 16  2  0  0  0  0
 16 17  1  0  0  0  0
 17 18  2  0  0  0  0
 18 19  1  0  0  0  0
 16 20  1  0  0  0  0
 12 21  2  0  0  0  0
 11 22  1  0  0  0  0
  4 23  1  0  0  0  0
  3 24  2  0  0  0  0
  1 25  1  0  0  0  0
 25 26  2  0  0  0  0
 26 27  1  0  0  0  0
 27 28  2  0  0  0  0
 28 29  1  0  0  0  0
 26 30  1  0  0  0  0
M  CHG  2  16   1  26   1
M  END
>  <Name>
Distigmine

>  <CAS #>
15876-67-2

>  <human Clearance (mL/min/kg)>
0.2

>  <Primary mechanism (metabolic, biliary or renal)>
renal

>  <seqId>
301.0

>  <Code (mechanism and clearance degree index)>
R1

>  < Five M1 and R1 test groups>
R1_3

>  <formamide>
0

>  <prodrug phosphates>
0

>  <VolSurf_V>
1026.38

>  <VolSurf_S>
715.046

>  <VolSurf_R>
1.4354

>  <VolSurf_G>
1.75174

>  <VolSurf_IW1>
0.0100378

>  <VolSurf_IW2>
0.0540876

>  <VolSurf_IW3>
0.257651

>  <VolSurf_IW4>
0.395355

>  <VolSurf_ID1>
0.00255826

>  <VolSurf_ID2>
0.00973863

>  <VolSurf_ID3>
0.0279167

>  <VolSurf_ID4>
0.0225609

>  <VolSurf_HL1>
0.983019

>  <VolSurf_HL2>
1.15574

>  <VolSurf_A>
2.19845

>  <VolSurf_CP>
9.69268

>  <VolSurf_POL>
43.428

>  <VolSurf_MW>
416.514

>  <VolSurf_FLEX>
4.99648

>  <VolSurf_FLEX_RB>
0.293911

>  <VolSurf_NCC>
2.0

>  <VolSurf_LOGP n-Oct>
-5.732

>  <VolSurf_LOGP c-Hex>
2.002

>  <VolSurf_PSA>
67.28

>  <VolSurf_HSA>
647.766

>  <VolSurf_PSAR>
0.0940919

>  <VolSurf_PHSAR>
0.103865

>  <VolSurf_LgD5>
-5.732

>  <VolSurf_LgD6>
-5.732

>  <VolSurf_LgD7>
-5.732

>  <VolSurf_LgD7.5>
-5.732

>  <VolSurf_LgD8>
-5.732

>  <VolSurf_LgD9>
-5.732

>  <VolSurf_LgD10>
-5.732

>  <VolSurf_AUS7.4>
0.0

>  <VolSurf_%FU4>
0.0

>  <VolSurf_%FU5>
0.0

>  <VolSurf_%FU6>
0.0

>  <VolSurf_%FU7>
0.0

>  <VolSurf_%FU8>
0.0

>  <VolSurf_%FU9>
0.0

>  <VolSurf_%FU10>
0.0

>  <ID>
152

>  <MOKAID>
153

>  <Clearance Route>
possible billary

>  <PC1>
-4.03214

>  <PC2>
-2.7084099999999998

$$$$
Disufenton sodium
  -OEChem-08301611272D

 23 21  0     0  0  0  0  0  0999 V2000
    0.0000    0.0000    0.0000 Na  0  3  0  0  0  0  0  0  0  0  0  0
    2.0000    0.0000    0.0000 Na  0  3  0  0  0  0  0  0  0  0  0  0
    8.3294    1.2540    0.0000 C   0  0  0  0  0  0  0  0  0  0  0  0
    7.4619    1.7617    0.0000 C   0  0  0  0  0  0  0  0  0  0  0  0
    6.5944    1.2540    0.0000 C   0  0  0  0  0  0  0  0  0  0  0  0
    6.5944    0.2488    0.0000 C   0  0  0  0  0  0  0  0  0  0  0  0
    7.4619   -0.2487    0.0000 C   0  0  0  0  0  0  0  0  0  0  0  0
    8.3294    0.2488    0.0000 C   0  0  0  0  0  0  0  0  0  0  0  0
    5.7291   -0.2524    0.0000 C   0  0  0  0  0  0  0  0  0  0  0  0
    5.7306   -1.2524    0.0000 N   0  3  0  0  0  0  0  0  0  0  0  0
    4.8653   -1.7537    0.0000 C   0  0  0  0  0  0  0  0  0  0  0  0
    5.3666   -2.6190    0.0000 C   0  0  0  0  0  0  0  0  0  0  0  0
    4.3640   -0.8884    0.0000 C   0  0  0  0  0  0  0  0  0  0  0  0
    4.0000   -2.2549    0.0000 C   0  0  0  0  0  0  0  0  0  0  0  0
    6.5973   -1.7512    0.0000 O   0  5  0  0  0  0  0  0  0  0  0  0
    5.7269    1.7515    0.0000 S   0  0  0  0  0  0  0  0  0  0  0  0
    5.2295    0.8840    0.0000 O   0  0  0  0  0  0  0  0  0  0  0  0
    6.2244    2.6190    0.0000 O   0  0  0  0  0  0  0  0  0  0  0  0
    4.8595    2.2489    0.0000 O   0  5  0  0  0  0  0  0  0  0  0  0
    9.1969    1.7515    0.0000 S   0  0  0  0  0  0  0  0  0  0  0  0
    8.6995    2.6190    0.0000 O   0  0  0  0  0  0  0  0  0  0  0  0
    9.6944    0.8840    0.0000 O   0  0  0  0  0  0  0  0  0  0  0  0
   10.0644    2.2489    0.0000 O   0  5  0  0  0  0  0  0  0  0  0  0
  3  8  2  0  0  0  0
  3  4  1  0  0  0  0
  4  5  2  0  0  0  0
  5  6  1  0  0  0  0
  6  7  2  0  0  0  0
  7  8  1  0  0  0  0
  6  9  1  0  0  0  0
  9 10  2  0  0  0  0
 10 11  1  0  0  0  0
 11 12  1  0  0  0  0
 11 13  1  0  0  0  0
 11 14  1  0  0  0  0
 10 15  1  0  0  0  0
  5 16  1  0  0  0  0
 16 17  2  0  0  0  0
 16 18  2  0  0  0  0
 16 19  1  0  0  0  0
  3 20  1  0  0  0  0
 20 21  2  0  0  0  0
 20 22  2  0  0  0  0
 20 23  1  0  0  0  0
M  CHG  6   1   1   2   1  10   1  15  -1  19  -1  23  -1
M  END
>  <Name>
Disufenton sodium

>  <CAS #>
168021-79-2

>  <human Clearance (mL/min/kg)>
1.35

>  <Primary mechanism (metabolic, biliary or renal)>
renal

>  <seqId>
302.0

>  <Code (mechanism and clearance degree index)>
R1

>  < Five M1 and R1 test groups>
R1_2

>  <formamide>
0

>  <prodrug phosphates>
0

>  <VolSurf_V>
650.125

>  <VolSurf_S>
456.86

>  <VolSurf_R>
1.42303

>  <VolSurf_G>
1.41238

>  <VolSurf_IW1>
0.0982648

>  <VolSurf_IW2>
0.185146

>  <VolSurf_IW3>
0.288583

>  <VolSurf_IW4>
0.344697

>  <VolSurf_ID1>
0.0952728

>  <VolSurf_ID2>
0.11426

>  <VolSurf_ID3>
0.141507

>  <VolSurf_ID4>
0.231116

>  <VolSurf_HL1>
17.1184

>  <VolSurf_HL2>
6.97561

>  <VolSurf_A>
3.89277

>  <VolSurf_CP>
0.108446

>  <VolSurf_POL>
30.22

>  <VolSurf_MW>
335.353

>  <VolSurf_FLEX>
0.835466

>  <VolSurf_FLEX_RB>
0.119352

>  <VolSurf_NCC>
4.0

>  <VolSurf_LOGP n-Oct>
-3.477

>  <VolSurf_LOGP c-Hex>
-5.047

>  <VolSurf_PSA>
145.25

>  <VolSurf_HSA>
311.61

>  <VolSurf_PSAR>
0.317931

>  <VolSurf_PHSAR>
0.466128

>  <VolSurf_LgD5>
-7.46604

>  <VolSurf_LgD6>
-8.13399

>  <VolSurf_LgD7>
-8.45506

>  <VolSurf_LgD7.5>
-8.49443

>  <VolSurf_LgD8>
-8.50771

>  <VolSurf_LgD9>
-8.51337

>  <VolSurf_LgD10>
-8.51394

>  <VolSurf_AUS7.4>
0.0

>  <VolSurf_%FU4>
0.0

>  <VolSurf_%FU5>
0.0

>  <VolSurf_%FU6>
0.0

>  <VolSurf_%FU7>
0.0

>  <VolSurf_%FU8>
0.0

>  <VolSurf_%FU9>
0.0

>  <VolSurf_%FU10>
0.0

>  <ID>
153

>  <MOKAID>
154

>  <Clearance Route>
renal

>  <PC1>
-7.282369999999999

>  <PC2>
2.1632599999999997

$$$$
Dobutamine
  -OEChem-08301611272D

 22 23  0     1  0  0  0  0  0999 V2000
    1.7350   -0.0000    0.0000 C   0  0  0  0  0  0  0  0  0  0  0  0
    0.8675    0.5077    0.0000 C   0  0  0  0  0  0  0  0  0  0  0  0
    0.0000    0.0000    0.0000 C   0  0  0  0  0  0  0  0  0  0  0  0
   -0.8675    0.4974    0.0000 C   0  0  0  0  0  0  0  0  0  0  0  0
   -1.7320   -0.0051    0.0000 C   0  0  0  0  0  0  0  0  0  0  0  0
   -2.5995    0.4923    0.0000 N   0  0  0  0  0  0  0  0  0  0  0  0
   -3.4641   -0.0102    0.0000 C   0  0  1  0  0  0  0  0  0  0  0  0
   -4.3316    0.4872    0.0000 C   0  0  0  0  0  0  0  0  0  0  0  0
   -5.1961   -0.0153    0.0000 C   0  0  0  0  0  0  0  0  0  0  0  0
   -6.0636    0.4821    0.0000 C   0  0  0  0  0  0  0  0  0  0  0  0
   -6.9312   -0.0256    0.0000 C   0  0  0  0  0  0  0  0  0  0  0  0
   -7.7987    0.4718    0.0000 C   0  0  0  0  0  0  0  0  0  0  0  0
   -7.8075    1.4718    0.0000 C   0  0  0  0  0  0  0  0  0  0  0  0
   -6.9400    1.9795    0.0000 C   0  0  0  0  0  0  0  0  0  0  0  0
   -6.0636    1.4873    0.0000 C   0  0  0  0  0  0  0  0  0  0  0  0
   -8.6772    1.9654    0.0000 O   0  0  0  0  0  0  0  0  0  0  0  0
   -3.4611   -1.0102    0.0000 C   0  0  0  0  0  0  0  0  0  0  0  0
   -0.0000   -1.0052    0.0000 C   0  0  0  0  0  0  0  0  0  0  0  0
    0.8675   -1.5027    0.0000 C   0  0  0  0  0  0  0  0  0  0  0  0
    1.7350   -1.0052    0.0000 C   0  0  0  0  0  0  0  0  0  0  0  0
    2.6003   -1.5065    0.0000 O   0  0  0  0  0  0  0  0  0  0  0  0
    2.6025    0.4974    0.0000 O   0  0  0  0  0  0  0  0  0  0  0  0
  1 20  2  0  0  0  0
  1  2  1  0  0  0  0
  2  3  2  0  0  0  0
  3  4  1  0  0  0  0
  4  5  1  0  0  0  0
  5  6  1  0  0  0  0
  6  7  1  0  0  0  0
  7  8  1  0  0  0  0
  8  9  1  0  0  0  0
  9 10  1  0  0  0  0
 10 15  2  0  0  0  0
 10 11  1  0  0  0  0
 11 12  2  0  0  0  0
 12 13  1  0  0  0  0
 13 14  2  0  0  0  0
 14 15  1  0  0  0  0
 13 16  1  0  0  0  0
  7 17  1  6  0  0  0
  3 18  1  0  0  0  0
 18 19  2  0  0  0  0
 19 20  1  0  0  0  0
 20 21  1  0  0  0  0
  1 22  1  0  0  0  0
M  END
>  <Name>
Dobutamine

>  <CAS #>
34368-04-2

>  <human Clearance (mL/min/kg)>
115.0

>  <Primary mechanism (metabolic, biliary or renal)>
metabolism

>  <seqId>
303.0

>  <Code (mechanism and clearance degree index)>
M1

>  < Five M1 and R1 test groups>
M1_1

>  <formamide>
0

>  <prodrug phosphates>
0

>  <VolSurf_V>
742.75

>  <VolSurf_S>
526.945

>  <VolSurf_R>
1.40954

>  <VolSurf_G>
1.53137

>  <VolSurf_IW1>
0.0364409

>  <VolSurf_IW2>
0.134178

>  <VolSurf_IW3>
0.348391

>  <VolSurf_IW4>
0.841549

>  <VolSurf_ID1>
0.0257605

>  <VolSurf_ID2>
0.0221787

>  <VolSurf_ID3>
0.034864

>  <VolSurf_ID4>
0.0542309

>  <VolSurf_HL1>
1.0839

>  <VolSurf_HL2>
0.881279

>  <VolSurf_A>
2.43875

>  <VolSurf_CP>
5.52237

>  <VolSurf_POL>
37.289

>  <VolSurf_MW>
302.388

>  <VolSurf_FLEX>
2.63898

>  <VolSurf_FLEX_RB>
0.239907

>  <VolSurf_NCC>
1.0

>  <VolSurf_LOGP n-Oct>
3.41

>  <VolSurf_LOGP c-Hex>
-0.464

>  <VolSurf_PSA>
84.27

>  <VolSurf_HSA>
442.675

>  <VolSurf_PSAR>
0.159922

>  <VolSurf_PHSAR>
0.190365

>  <VolSurf_LgD5>
0.0434892

>  <VolSurf_LgD6>
0.448088

>  <VolSurf_LgD7>
1.29424

>  <VolSurf_LgD7.5>
1.77346

>  <VolSurf_LgD8>
2.24774

>  <VolSurf_LgD9>
3.0112

>  <VolSurf_LgD10>
2.92488

>  <VolSurf_AUS7.4>
0.400556

>  <VolSurf_%FU4>
7.36009E-4

>  <VolSurf_%FU5>
0.0073596

>  <VolSurf_%FU6>
0.0735473

>  <VolSurf_%FU7>
0.730629

>  <VolSurf_%FU8>
6.84878

>  <VolSurf_%FU9>
39.8793

>  <VolSurf_%FU10>
32.5374

>  <ID>
154

>  <MOKAID>
155

>  <Clearance Route>
possible billary

>  <PC1>
1.4157600000000001

>  <PC2>
-1.17486

$$$$
Docetaxel
  -OEChem-08301611272D

 60 65  0     1  0  0  0  0  0999 V2000
    7.2521   -1.4695    0.0000 C   0  0  0  0  0  0  0  0  0  0  0  0
    6.2865   -1.2094    0.0000 C   0  0  0  0  0  0  0  0  0  0  0  0
    5.5785   -1.9156    0.0000 O   0  0  0  0  0  0  0  0  0  0  0  0
    6.0290   -0.2431    0.0000 O   0  0  0  0  0  0  0  0  0  0  0  0
    4.3392    0.2120    0.0000 C   0  0  1  0  0  0  0  0  0  0  0  0
    4.8430   -0.6632    0.0000 C   0  0  0  0  0  0  0  0  0  0  0  0
    5.7182   -0.1594    0.0000 O   0  0  0  0  0  0  0  0  0  0  0  0
    5.2143    0.7157    0.0000 C   0  0  2  0  0  0  0  0  0  0  0  0
    5.2184    1.7248    0.0000 C   0  0  0  0  0  0  0  0  0  0  0  0
    4.3444    2.2307    0.0000 C   0  0  2  0  0  0  0  0  0  0  0  0
    4.3466    3.2307    0.0000 O   0  0  0  0  0  0  0  0  0  0  0  0
    3.4665    1.7276    0.0000 C   0  0  2  0  0  0  0  0  0  0  0  0
    4.3326    1.2278    0.0000 C   0  0  0  0  0  0  0  0  0  0  0  0
    3.4702    0.7206    0.0000 C   0  0  2  0  0  0  0  0  0  0  0  0
    2.7546    0.0000    0.0000 C   0  0  2  0  0  0  0  0  0  0  0  0
    3.4271   -1.6156    0.0000 O   0  0  0  0  0  0  0  0  0  0  0  0
    2.8197   -2.4100    0.0000 C   0  0  0  0  0  0  0  0  0  0  0  0
    1.8281   -2.2812    0.0000 O   0  0  0  0  0  0  0  0  0  0  0  0
    3.2040   -3.3332    0.0000 C   0  0  0  0  0  0  0  0  0  0  0  0
    2.5911   -4.1300    0.0000 C   0  0  0  0  0  0  0  0  0  0  0  0
    2.9754   -5.0532    0.0000 C   0  0  0  0  0  0  0  0  0  0  0  0
    3.9663   -5.1878    0.0000 C   0  0  0  0  0  0  0  0  0  0  0  0
    4.5792   -4.3911    0.0000 C   0  0  0  0  0  0  0  0  0  0  0  0
    4.2012   -3.4598    0.0000 C   0  0  0  0  0  0  0  0  0  0  0  0
    1.7466    0.0000    0.0000 C   0  0  2  0  0  0  0  0  0  0  0  0
    2.0040   -0.9663    0.0000 O   0  0  0  0  0  0  0  0  0  0  0  0
    0.8733   -0.5008    0.0000 C   0  0  0  0  0  0  0  0  0  0  0  0
    0.0000    0.0000    0.0000 C   0  0  2  0  0  0  0  0  0  0  0  0
   -0.8653   -0.5013    0.0000 O   0  0  0  0  0  0  0  0  0  0  0  0
   -1.7320   -0.0025    0.0000 C   0  0  0  0  0  0  0  0  0  0  0  0
   -1.7335    0.9975    0.0000 O   0  0  0  0  0  0  0  0  0  0  0  0
   -2.5973   -0.5038    0.0000 C   0  0  2  0  0  0  0  0  0  0  0  0
   -2.5959   -1.5038    0.0000 O   0  0  0  0  0  0  0  0  0  0  0  0
   -3.4641   -0.0051    0.0000 C   0  0  1  0  0  0  0  0  0  0  0  0
   -4.3294   -0.5063    0.0000 N   0  0  0  0  0  0  0  0  0  0  0  0
   -4.3279   -1.5063    0.0000 C   0  0  0  0  0  0  0  0  0  0  0  0
   -3.4612   -2.0051    0.0000 O   0  0  0  0  0  0  0  0  0  0  0  0
   -5.1932   -2.0076    0.0000 O   0  0  0  0  0  0  0  0  0  0  0  0
   -5.1918   -3.0076    0.0000 C   0  0  0  0  0  0  0  0  0  0  0  0
   -4.1918   -3.0061    0.0000 C   0  0  0  0  0  0  0  0  0  0  0  0
   -6.1918   -3.0091    0.0000 C   0  0  0  0  0  0  0  0  0  0  0  0
   -5.1903   -4.0076    0.0000 C   0  0  0  0  0  0  0  0  0  0  0  0
   -3.4656    0.9949    0.0000 C   0  0  0  0  0  0  0  0  0  0  0  0
   -4.3383    1.4937    0.0000 C   0  0  0  0  0  0  0  0  0  0  0  0
   -4.3398    2.4937    0.0000 C   0  0  0  0  0  0  0  0  0  0  0  0
   -3.4774    3.0001    0.0000 C   0  0  0  0  0  0  0  0  0  0  0  0
   -2.6047    2.5013    0.0000 C   0  0  0  0  0  0  0  0  0  0  0  0
   -2.5943    1.4962    0.0000 C   0  0  0  0  0  0  0  0  0  0  0  0
    0.0000    1.0119    0.0000 C   0  0  0  0  0  0  0  0  0  0  0  0
    0.8733    1.5230    0.0000 C   0  0  0  0  0  0  0  0  0  0  0  0
    1.6457    2.3918    0.0000 C   0  0  1  0  0  0  0  0  0  0  0  0
    1.2361    3.3041    0.0000 O   0  0  0  0  0  0  0  0  0  0  0  0
    2.7189    2.3918    0.0000 C   0  0  0  0  0  0  0  0  0  0  0  0
    3.0742    3.3266    0.0000 O   0  0  0  0  0  0  0  0  0  0  0  0
    1.7466    1.0119    0.0000 C   0  0  0  0  0  0  0  0  0  0  0  0
    2.0923    1.9502    0.0000 C   0  0  0  0  0  0  0  0  0  0  0  0
    2.7311    0.8363    0.0000 C   0  0  0  0  0  0  0  0  0  0  0  0
   -0.8675    1.5093    0.0000 C   0  0  0  0  0  0  0  0  0  0  0  0
    6.1809    0.9720    0.0000 H   0  0  0  0  0  0  0  0  0  0  0  0
    3.5995   -0.2710    0.0000 H   0  0  0  0  0  0  0  0  0  0  0  0
  1  2  1  0  0  0  0
  2  3  2  0  0  0  0
  2  4  1  0  0  0  0
  5  4  1  6  0  0  0
  5  8  1  0  0  0  0
  5 14  1  0  0  0  0
  5  6  1  0  0  0  0
  6  7  1  0  0  0  0
  7  8  1  0  0  0  0
  8  9  1  0  0  0  0
  9 10  1  0  0  0  0
 10 11  1  1  0  0  0
 10 12  1  0  0  0  0
 12 53  1  0  0  0  0
 12 13  1  1  0  0  0
 12 14  1  0  0  0  0
 14 15  1  0  0  0  0
 15 16  1  6  0  0  0
 16 17  1  0  0  0  0
 17 18  2  0  0  0  0
 17 19  1  0  0  0  0
 19 24  2  0  0  0  0
 19 20  1  0  0  0  0
 20 21  2  0  0  0  0
 21 22  1  0  0  0  0
 22 23  2  0  0  0  0
 23 24  1  0  0  0  0
 15 25  1  0  0  0  0
 25 55  1  0  0  0  0
 25 26  1  1  0  0  0
 25 27  1  0  0  0  0
 27 28  1  0  0  0  0
 28 29  1  6  0  0  0
 29 30  1  0  0  0  0
 30 31  2  0  0  0  0
 30 32  1  0  0  0  0
 32 33  1  6  0  0  0
 32 34  1  0  0  0  0
 34 35  1  1  0  0  0
 35 36  1  0  0  0  0
 36 37  2  0  0  0  0
 36 38  1  0  0  0  0
 38 39  1  0  0  0  0
 39 40  1  0  0  0  0
 39 41  1  0  0  0  0
 39 42  1  0  0  0  0
 34 43  1  0  0  0  0
 43 48  2  0  0  0  0
 43 44  1  0  0  0  0
 44 45  2  0  0  0  0
 45 46  1  0  0  0  0
 46 47  2  0  0  0  0
 47 48  1  0  0  0  0
 28 49  1  0  0  0  0
 49 50  2  0  0  0  0
 50 51  1  0  0  0  0
 51 52  1  1  0  0  0
 51 53  1  0  0  0  0
 53 54  2  0  0  0  0
 50 55  1  0  0  0  0
 55 56  1  0  0  0  0
 55 57  1  0  0  0  0
 49 58  1  0  0  0  0
  8 59  1  6  0  0  0
 14 60  1  6  0  0  0
M  END
>  <Name>
Docetaxel

>  <CAS #>
114977-28-5

>  <human Clearance (mL/min/kg)>
14.0

>  <Primary mechanism (metabolic, biliary or renal)>


>  <seqId>
304.0

>  <Code (mechanism and clearance degree index)>
M1

>  < Five M1 and R1 test groups>
M1_4

>  <formamide>
0

>  <prodrug phosphates>
0

>  <VolSurf_V>
1533.5

>  <VolSurf_S>
936.639

>  <VolSurf_R>
1.63724

>  <VolSurf_G>
1.75771

>  <VolSurf_IW1>
0.0423303

>  <VolSurf_IW2>
0.0949567

>  <VolSurf_IW3>
0.176379

>  <VolSurf_IW4>
0.207638

>  <VolSurf_ID1>
0.0208

>  <VolSurf_ID2>
0.0632774

>  <VolSurf_ID3>
0.130677

>  <VolSurf_ID4>
0.198037

>  <VolSurf_HL1>
10.0685

>  <VolSurf_HL2>
11.4423

>  <VolSurf_A>
4.6907

>  <VolSurf_CP>
0.165682

>  <VolSurf_POL>
80.7491

>  <VolSurf_MW>
807.879

>  <VolSurf_FLEX>
2.79294

>  <VolSurf_FLEX_RB>
0.111718

>  <VolSurf_NCC>
0.0

>  <VolSurf_LOGP n-Oct>
2.965

>  <VolSurf_LOGP c-Hex>
0.455

>  <VolSurf_PSA>
227.75

>  <VolSurf_HSA>
708.889

>  <VolSurf_PSAR>
0.243157

>  <VolSurf_PHSAR>
0.321277

>  <VolSurf_LgD5>
2.965

>  <VolSurf_LgD6>
2.96497

>  <VolSurf_LgD7>
2.96468

>  <VolSurf_LgD7.5>
2.96398

>  <VolSurf_LgD8>
2.96177

>  <VolSurf_LgD9>
2.9337

>  <VolSurf_LgD10>
2.72185

>  <VolSurf_AUS7.4>
2.0

>  <VolSurf_%FU4>
99.9999

>  <VolSurf_%FU5>
99.9993

>  <VolSurf_%FU6>
99.9925

>  <VolSurf_%FU7>
99.9253

>  <VolSurf_%FU8>
99.2582

>  <VolSurf_%FU9>
93.0437

>  <VolSurf_%FU10>
57.1141

>  <ID>
155

>  <MOKAID>
156

>  <Clearance Route>
possible billary

>  <PC1>
2.42068

>  <PC2>
-5.35427

$$$$
Dofetilide
  -OEChem-08301611272D

 29 30  0     1  0  0  0  0  0999 V2000
    4.3286    0.4925    0.0000 C   0  0  0  0  0  0  0  0  0  0  0  0
    4.3316    1.4925    0.0000 N   0  0  3  0  0  0  0  0  0  0  0  0
    3.4670    1.9950    0.0000 C   0  0  0  0  0  0  0  0  0  0  0  0
    2.5995    1.4976    0.0000 C   0  0  0  0  0  0  0  0  0  0  0  0
    1.7350    2.0001    0.0000 O   0  0  0  0  0  0  0  0  0  0  0  0
    0.8675    1.5027    0.0000 C   0  0  0  0  0  0  0  0  0  0  0  0
    0.8675    0.4975    0.0000 C   0  0  0  0  0  0  0  0  0  0  0  0
    0.0000    0.0000    0.0000 C   0  0  0  0  0  0  0  0  0  0  0  0
   -0.8675    0.4975    0.0000 C   0  0  0  0  0  0  0  0  0  0  0  0
   -1.7328   -0.0038    0.0000 N   0  0  0  0  0  0  0  0  0  0  0  0
   -1.7313   -1.0038    0.0000 S   0  0  0  0  0  0  0  0  0  0  0  0
   -0.7313   -1.0023    0.0000 O   0  0  0  0  0  0  0  0  0  0  0  0
   -2.7313   -1.0052    0.0000 O   0  0  0  0  0  0  0  0  0  0  0  0
   -1.7299   -2.0038    0.0000 C   0  0  0  0  0  0  0  0  0  0  0  0
   -0.8675    1.5027    0.0000 C   0  0  0  0  0  0  0  0  0  0  0  0
    0.0000    2.0104    0.0000 C   0  0  0  0  0  0  0  0  0  0  0  0
    5.1991    1.9899    0.0000 C   0  0  0  0  0  0  0  0  0  0  0  0
    6.0636    1.4874    0.0000 C   0  0  0  0  0  0  0  0  0  0  0  0
    6.9311    1.9848    0.0000 C   0  0  0  0  0  0  0  0  0  0  0  0
    6.9311    2.9900    0.0000 C   0  0  0  0  0  0  0  0  0  0  0  0
    7.7986    3.4875    0.0000 C   0  0  0  0  0  0  0  0  0  0  0  0
    8.6661    2.9900    0.0000 C   0  0  0  0  0  0  0  0  0  0  0  0
    9.5314    3.4913    0.0000 N   0  0  0  0  0  0  0  0  0  0  0  0
    9.5300    4.4913    0.0000 S   0  0  0  0  0  0  0  0  0  0  0  0
    8.5300    4.4898    0.0000 O   0  0  0  0  0  0  0  0  0  0  0  0
   10.5300    4.4927    0.0000 O   0  0  0  0  0  0  0  0  0  0  0  0
    9.5285    5.4913    0.0000 C   0  0  0  0  0  0  0  0  0  0  0  0
    8.6661    1.9848    0.0000 C   0  0  0  0  0  0  0  0  0  0  0  0
    7.7986    1.4771    0.0000 C   0  0  0  0  0  0  0  0  0  0  0  0
  1  2  1  0  0  0  0
  2  3  1  0  0  0  0
  3  4  1  0  0  0  0
  4  5  1  0  0  0  0
  5  6  1  0  0  0  0
  6 16  2  0  0  0  0
  6  7  1  0  0  0  0
  7  8  2  0  0  0  0
  8  9  1  0  0  0  0
  9 10  1  0  0  0  0
 10 11  1  0  0  0  0
 11 12  2  0  0  0  0
 11 13  2  0  0  0  0
 11 14  1  0  0  0  0
  9 15  2  0  0  0  0
 15 16  1  0  0  0  0
  2 17  1  0  0  0  0
 17 18  1  0  0  0  0
 18 19  1  0  0  0  0
 19 29  2  0  0  0  0
 19 20  1  0  0  0  0
 20 21  2  0  0  0  0
 21 22  1  0  0  0  0
 22 23  1  0  0  0  0
 23 24  1  0  0  0  0
 24 25  2  0  0  0  0
 24 26  2  0  0  0  0
 24 27  1  0  0  0  0
 22 28  2  0  0  0  0
 28 29  1  0  0  0  0
M  END
>  <Name>
Dofetilide

>  <CAS #>
115256-11-6

>  <human Clearance (mL/min/kg)>
5.2

>  <Primary mechanism (metabolic, biliary or renal)>
renal

>  <seqId>
305.0

>  <Code (mechanism and clearance degree index)>
R1

>  < Five M1 and R1 test groups>
R1_1

>  <formamide>
0

>  <prodrug phosphates>
0

>  <VolSurf_V>
970.375

>  <VolSurf_S>
664.923

>  <VolSurf_R>
1.45938

>  <VolSurf_G>
1.66147

>  <VolSurf_IW1>
0.0145902

>  <VolSurf_IW2>
0.040762

>  <VolSurf_IW3>
0.0860282

>  <VolSurf_IW4>
0.614986

>  <VolSurf_ID1>
0.00630392

>  <VolSurf_ID2>
0.0307784

>  <VolSurf_ID3>
0.0746308

>  <VolSurf_ID4>
0.12212

>  <VolSurf_HL1>
2.07377

>  <VolSurf_HL2>
0.363208

>  <VolSurf_A>
1.27557

>  <VolSurf_CP>
1.90777

>  <VolSurf_POL>
48.352

>  <VolSurf_MW>
442.573

>  <VolSurf_FLEX>
3.85663

>  <VolSurf_FLEX_RB>
0.275474

>  <VolSurf_NCC>
1.0

>  <VolSurf_LOGP n-Oct>
1.871

>  <VolSurf_LOGP c-Hex>
0.205

>  <VolSurf_PSA>
131.225

>  <VolSurf_HSA>
533.698

>  <VolSurf_PSAR>
0.197354

>  <VolSurf_PHSAR>
0.245879

>  <VolSurf_LgD5>
-1.06557

>  <VolSurf_LgD6>
-0.0823766

>  <VolSurf_LgD7>
0.87316

>  <VolSurf_LgD7.5>
1.27376

>  <VolSurf_LgD8>
1.49905

>  <VolSurf_LgD9>
0.911813

>  <VolSurf_LgD10>
-0.745331

>  <VolSurf_AUS7.4>
1.34583

>  <VolSurf_%FU4>
0.0112212

>  <VolSurf_%FU5>
0.112099

>  <VolSurf_%FU6>
1.10974

>  <VolSurf_%FU7>
10.0465

>  <VolSurf_%FU8>
42.4597

>  <VolSurf_%FU9>
10.9703

>  <VolSurf_%FU10>
0.238202

>  <ID>
156

>  <MOKAID>
157

>  <Clearance Route>
possible billary

>  <PC1>
-0.126638

>  <PC2>
-3.0177400000000003

$$$$
Dolasetron
  -OEChem-08301611272D

 26 30  0     1  0  0  0  0  0999 V2000
   -1.2435   -1.5664    0.0000 O   0  0  0  0  0  0  0  0  0  0  0  0
   -0.2543   -1.7133    0.0000 C   0  0  0  0  0  0  0  0  0  0  0  0
    0.3674   -0.9301    0.0000 O   0  0  0  0  0  0  0  0  0  0  0  0
    0.0000    0.0000    0.0000 C   0  0  2  0  0  0  0  0  0  0  0  0
   -0.6953    1.1888    0.0000 C   0  0  0  0  0  0  0  0  0  0  0  0
   -1.6151    1.5814    0.0000 C   0  0  2  0  0  0  0  0  0  0  0  0
   -3.1516    1.5477    0.0000 C   0  0  0  0  0  0  0  0  0  0  0  0
   -3.6092    3.2974    0.0000 C   0  0  0  0  0  0  0  0  0  0  0  0
   -2.9766    2.2017    0.0000 C   0  0  0  0  0  0  0  0  0  0  0  0
   -1.7115    2.2017    0.0000 C   0  0  2  0  0  0  0  0  0  0  0  0
   -0.4150    1.8281    0.0000 C   0  0  0  0  0  0  0  0  0  0  0  0
   -1.0789    3.2974    0.0000 N   0  0  0  0  0  0  0  0  0  0  0  0
   -1.7115    4.3930    0.0000 C   0  0  0  0  0  0  0  0  0  0  0  0
   -2.9766    4.3930    0.0000 C   0  0  0  0  0  0  0  0  0  0  0  0
   -3.4766    5.2590    0.0000 O   0  0  0  0  0  0  0  0  0  0  0  0
    0.1131   -2.6433    0.0000 C   0  0  0  0  0  0  0  0  0  0  0  0
   -0.4272   -3.4933    0.0000 C   0  0  0  0  0  0  0  0  0  0  0  0
    0.2142   -4.2696    0.0000 N   0  0  0  0  0  0  0  0  0  0  0  0
    1.1509   -3.8996    0.0000 C   0  0  0  0  0  0  0  0  0  0  0  0
    2.0487   -4.3528    0.0000 C   0  0  0  0  0  0  0  0  0  0  0  0
    2.8835   -3.7919    0.0000 C   0  0  0  0  0  0  0  0  0  0  0  0
    2.8211   -2.7880    0.0000 C   0  0  0  0  0  0  0  0  0  0  0  0
    1.9239   -2.3451    0.0000 C   0  0  0  0  0  0  0  0  0  0  0  0
    1.0884   -2.8946    0.0000 C   0  0  0  0  0  0  0  0  0  0  0  0
   -1.8047    0.5995    0.0000 H   0  0  0  0  0  0  0  0  0  0  0  0
   -1.8513    1.2115    0.0000 H   0  0  0  0  0  0  0  0  0  0  0  0
  1  2  2  0  0  0  0
  2  3  1  0  0  0  0
  4  3  1  6  0  0  0
  4 11  1  0  0  0  0
  4  5  1  0  0  0  0
  5  6  1  0  0  0  0
  6 12  1  0  0  0  0
  6  7  1  0  0  0  0
  7  8  1  0  0  0  0
  8 14  1  0  0  0  0
  8  9  1  0  0  0  0
  9 10  1  0  0  0  0
 10 11  1  0  0  0  0
 10 12  1  0  0  0  0
 12 13  1  0  0  0  0
 13 14  1  0  0  0  0
 14 15  2  0  0  0  0
  2 16  1  0  0  0  0
 16 24  1  0  0  0  0
 16 17  2  0  0  0  0
 17 18  1  0  0  0  0
 18 19  1  0  0  0  0
 19 24  2  0  0  0  0
 19 20  1  0  0  0  0
 20 21  2  0  0  0  0
 21 22  1  0  0  0  0
 22 23  2  0  0  0  0
 23 24  1  0  0  0  0
  6 25  1  1  0  0  0
 10 26  1  6  0  0  0
M  END
>  <Name>
Dolasetron

>  <CAS #>
115956-12-2

>  <human Clearance (mL/min/kg)>
180.0

>  <Primary mechanism (metabolic, biliary or renal)>
metabolism

>  <seqId>
306.0

>  <Code (mechanism and clearance degree index)>
M1

>  < Five M1 and R1 test groups>
M1_4

>  <formamide>
0

>  <prodrug phosphates>
0

>  <VolSurf_V>
694.25

>  <VolSurf_S>
464.046

>  <VolSurf_R>
1.49608

>  <VolSurf_G>
1.35394

>  <VolSurf_IW1>
0.0524604

>  <VolSurf_IW2>
0.171359

>  <VolSurf_IW3>
0.513444

>  <VolSurf_IW4>
0.77139

>  <VolSurf_ID1>
0.0385287

>  <VolSurf_ID2>
0.109847

>  <VolSurf_ID3>
0.233083

>  <VolSurf_ID4>
0.329202

>  <VolSurf_HL1>
1.86325

>  <VolSurf_HL2>
1.82682

>  <VolSurf_A>
4.91532

>  <VolSurf_CP>
0.788354

>  <VolSurf_POL>
36.27

>  <VolSurf_MW>
325.382

>  <VolSurf_FLEX>
1.57079

>  <VolSurf_FLEX_RB>
0.523595

>  <VolSurf_NCC>
1.0

>  <VolSurf_LOGP n-Oct>
3.292

>  <VolSurf_LOGP c-Hex>
2.403

>  <VolSurf_PSA>
66.81

>  <VolSurf_HSA>
397.236

>  <VolSurf_PSAR>
0.143973

>  <VolSurf_PHSAR>
0.168187

>  <VolSurf_LgD5>
0.227366

>  <VolSurf_LgD6>
1.05125

>  <VolSurf_LgD7>
2.00858

>  <VolSurf_LgD7.5>
2.46079

>  <VolSurf_LgD8>
2.84021

>  <VolSurf_LgD9>
3.21896

>  <VolSurf_LgD10>
3.28392

>  <VolSurf_AUS7.4>
1.10585

>  <VolSurf_%FU4>
0.00545932

>  <VolSurf_%FU5>
0.0545664

>  <VolSurf_%FU6>
0.542998

>  <VolSurf_%FU7>
5.17698

>  <VolSurf_%FU8>
35.3153

>  <VolSurf_%FU9>
84.5158

>  <VolSurf_%FU10>
98.1553

>  <ID>
157

>  <MOKAID>
158

>  <Clearance Route>
metabolic

>  <PC1>
2.53188

>  <PC2>
-0.294603

$$$$
Domperidone
  -OEChem-08301611272D

 30 34  0     0  0  0  0  0  0999 V2000
   -0.8675    0.4975    0.0000 Cl  0  0  0  0  0  0  0  0  0  0  0  0
    0.0000    0.0000    0.0000 C   0  0  0  0  0  0  0  0  0  0  0  0
   -0.0000   -1.0058    0.0000 C   0  0  0  0  0  0  0  0  0  0  0  0
    0.8680   -1.5037    0.0000 C   0  0  0  0  0  0  0  0  0  0  0  0
    1.7360   -1.0071    0.0000 C   0  0  0  0  0  0  0  0  0  0  0  0
    2.6938   -1.3184    0.0000 N   0  0  0  0  0  0  0  0  0  0  0  0
    3.0028   -2.2695    0.0000 C   0  0  0  0  0  0  0  0  0  0  0  0
    3.9815   -2.4746    0.0000 C   0  0  0  0  0  0  0  0  0  0  0  0
    4.2921   -3.4306    0.0000 C   0  0  0  0  0  0  0  0  0  0  0  0
    3.6239   -4.1815    0.0000 N   0  0  0  0  0  0  0  0  0  0  0  0
    3.9329   -5.1326    0.0000 C   0  0  0  0  0  0  0  0  0  0  0  0
    4.9110   -5.3405    0.0000 C   0  0  0  0  0  0  0  0  0  0  0  0
    5.2200   -6.2916    0.0000 C   0  0  0  0  0  0  0  0  0  0  0  0
    6.1981   -6.4996    0.0000 N   0  0  0  0  0  0  0  0  0  0  0  0
    6.9464   -5.8257    0.0000 C   0  0  0  0  0  0  0  0  0  0  0  0
    6.8418   -4.8312    0.0000 O   0  0  0  0  0  0  0  0  0  0  0  0
    7.8186   -6.3293    0.0000 N   0  0  0  0  0  0  0  0  0  0  0  0
    7.6091   -7.3144    0.0000 C   0  0  0  0  0  0  0  0  0  0  0  0
    8.1937   -8.1257    0.0000 C   0  0  0  0  0  0  0  0  0  0  0  0
    7.7893   -9.0410    0.0000 C   0  0  0  0  0  0  0  0  0  0  0  0
    6.7890   -9.1461    0.0000 C   0  0  0  0  0  0  0  0  0  0  0  0
    6.1931   -8.3359    0.0000 C   0  0  0  0  0  0  0  0  0  0  0  0
    6.6075   -7.4196    0.0000 C   0  0  0  0  0  0  0  0  0  0  0  0
    2.6420   -3.9667    0.0000 C   0  0  0  0  0  0  0  0  0  0  0  0
    2.3314   -3.0107    0.0000 C   0  0  0  0  0  0  0  0  0  0  0  0
    3.2858   -0.5036    0.0000 C   0  0  0  0  0  0  0  0  0  0  0  0
    4.2858   -0.5035    0.0000 O   0  0  0  0  0  0  0  0  0  0  0  0
    2.6938    0.3110    0.0000 N   0  0  0  0  0  0  0  0  0  0  0  0
    1.7360   -0.0000    0.0000 C   0  0  0  0  0  0  0  0  0  0  0  0
    0.8680    0.5079    0.0000 C   0  0  0  0  0  0  0  0  0  0  0  0
  1  2  1  0  0  0  0
  2 30  2  0  0  0  0
  2  3  1  0  0  0  0
  3  4  2  0  0  0  0
  4  5  1  0  0  0  0
  5 29  2  0  0  0  0
  5  6  1  0  0  0  0
  6  7  1  0  0  0  0
  7 25  1  0  0  0  0
  7  8  1  0  0  0  0
  8  9  1  0  0  0  0
  9 10  1  0  0  0  0
 10 11  1  0  0  0  0
 11 12  1  0  0  0  0
 12 13  1  0  0  0  0
 13 14  1  0  0  0  0
 14 23  1  0  0  0  0
 14 15  1  0  0  0  0
 15 16  2  0  0  0  0
 15 17  1  0  0  0  0
 17 18  1  0  0  0  0
 18 23  2  0  0  0  0
 18 19  1  0  0  0  0
 19 20  2  0  0  0  0
 20 21  1  0  0  0  0
 21 22  2  0  0  0  0
 22 23  1  0  0  0  0
 10 24  1  0  0  0  0
 24 25  1  0  0  0  0
  6 26  1  0  0  0  0
 26 27  2  0  0  0  0
 26 28  1  0  0  0  0
 28 29  1  0  0  0  0
 29 30  1  0  0  0  0
M  END
>  <Name>
Domperidone

>  <CAS #>
57808-66-9

>  <human Clearance (mL/min/kg)>
9.5

>  <Primary mechanism (metabolic, biliary or renal)>
metabolic

>  <seqId>
307.0

>  <Code (mechanism and clearance degree index)>
M1

>  < Five M1 and R1 test groups>
M1_4

>  <formamide>
0

>  <prodrug phosphates>
0

>  <VolSurf_V>
912.625

>  <VolSurf_S>
614.866

>  <VolSurf_R>
1.48427

>  <VolSurf_G>
1.57091

>  <VolSurf_IW1>
0.075475

>  <VolSurf_IW2>
0.280316

>  <VolSurf_IW3>
0.615226

>  <VolSurf_IW4>
0.856237

>  <VolSurf_ID1>
0.0205654

>  <VolSurf_ID2>
0.0226983

>  <VolSurf_ID3>
0.0262428

>  <VolSurf_ID4>
0.0512259

>  <VolSurf_HL1>
0.919527

>  <VolSurf_HL2>
0.707182

>  <VolSurf_A>
4.35875

>  <VolSurf_CP>
6.90747

>  <VolSurf_POL>
46.822

>  <VolSurf_MW>
426.919

>  <VolSurf_FLEX>
2.50657

>  <VolSurf_FLEX_RB>
0.501315

>  <VolSurf_NCC>
1.0

>  <VolSurf_LOGP n-Oct>
3.595

>  <VolSurf_LOGP c-Hex>
1.5

>  <VolSurf_PSA>
75.63

>  <VolSurf_HSA>
539.236

>  <VolSurf_PSAR>
0.123002

>  <VolSurf_PHSAR>
0.140254

>  <VolSurf_LgD5>
0.910683

>  <VolSurf_LgD6>
1.83241

>  <VolSurf_LgD7>
2.76291

>  <VolSurf_LgD7.5>
3.14211

>  <VolSurf_LgD8>
3.39373

>  <VolSurf_LgD9>
3.53346

>  <VolSurf_LgD10>
3.26641

>  <VolSurf_AUS7.4>
1.48962

>  <VolSurf_%FU4>
0.0172195

>  <VolSurf_%FU5>
0.171928

>  <VolSurf_%FU6>
1.69308

>  <VolSurf_%FU7>
14.6901

>  <VolSurf_%FU8>
62.898

>  <VolSurf_%FU9>
86.7846

>  <VolSurf_%FU10>
46.9112

>  <ID>
158

>  <MOKAID>
159

>  <Clearance Route>
metabolic

>  <PC1>
3.136

>  <PC2>
-2.07127

$$$$
Dopamine
  -OEChem-08301611272D

 11 11  0     0  0  0  0  0  0999 V2000
    1.7350   -0.0000    0.0000 C   0  0  0  0  0  0  0  0  0  0  0  0
    0.8675    0.5077    0.0000 C   0  0  0  0  0  0  0  0  0  0  0  0
    0.0000    0.0000    0.0000 C   0  0  0  0  0  0  0  0  0  0  0  0
   -0.0000   -1.0052    0.0000 C   0  0  0  0  0  0  0  0  0  0  0  0
   -0.8653   -1.5065    0.0000 O   0  0  0  0  0  0  0  0  0  0  0  0
    0.8675   -1.5027    0.0000 C   0  0  0  0  0  0  0  0  0  0  0  0
    1.7350   -1.0052    0.0000 C   0  0  0  0  0  0  0  0  0  0  0  0
   -0.8675    0.4974    0.0000 O   0  0  0  0  0  0  0  0  0  0  0  0
    2.6025    0.4974    0.0000 C   0  0  0  0  0  0  0  0  0  0  0  0
    2.6054    1.4974    0.0000 C   0  0  0  0  0  0  0  0  0  0  0  0
    3.4729    1.9949    0.0000 N   0  0  0  0  0  0  0  0  0  0  0  0
  1  7  2  0  0  0  0
  1  2  1  0  0  0  0
  2  3  2  0  0  0  0
  3  4  1  0  0  0  0
  4  5  1  0  0  0  0
  4  6  2  0  0  0  0
  6  7  1  0  0  0  0
  3  8  1  0  0  0  0
  1  9  1  0  0  0  0
  9 10  1  0  0  0  0
 10 11  1  0  0  0  0
M  END
>  <Name>
Dopamine

>  <CAS #>
51-61-6

>  <human Clearance (mL/min/kg)>
65.9

>  <Primary mechanism (metabolic, biliary or renal)>
metabolic

>  <seqId>
308.0

>  <Code (mechanism and clearance degree index)>
M1

>  < Five M1 and R1 test groups>
M1_2

>  <formamide>
0

>  <prodrug phosphates>
0

>  <VolSurf_V>
374.875

>  <VolSurf_S>
284.16

>  <VolSurf_R>
1.31924

>  <VolSurf_G>
1.20152

>  <VolSurf_IW1>
0.110228

>  <VolSurf_IW2>
0.279781

>  <VolSurf_IW3>
0.614711

>  <VolSurf_IW4>
0.732183

>  <VolSurf_ID1>
0.0668767

>  <VolSurf_ID2>
0.0714136

>  <VolSurf_ID3>
0.0836662

>  <VolSurf_ID4>
0.193654

>  <VolSurf_HL1>
3.03865

>  <VolSurf_HL2>
2.41739

>  <VolSurf_A>
2.49673

>  <VolSurf_CP>
1.32024

>  <VolSurf_POL>
18.652

>  <VolSurf_MW>
154.186

>  <VolSurf_FLEX>
0.29834

>  <VolSurf_FLEX_RB>
0.059668

>  <VolSurf_NCC>
1.0

>  <VolSurf_LOGP n-Oct>
0.556

>  <VolSurf_LOGP c-Hex>
-1.506

>  <VolSurf_PSA>
75.07

>  <VolSurf_HSA>
209.09

>  <VolSurf_PSAR>
0.264182

>  <VolSurf_PHSAR>
0.359032

>  <VolSurf_LgD5>
-2.32182

>  <VolSurf_LgD6>
-2.30271

>  <VolSurf_LgD7>
-2.149

>  <VolSurf_LgD7.5>
-1.92201

>  <VolSurf_LgD8>
-1.59125

>  <VolSurf_LgD9>
-1.02055

>  <VolSurf_LgD10>
-1.15339

>  <VolSurf_AUS7.4>
0.0

>  <VolSurf_%FU4>
0.0

>  <VolSurf_%FU5>
0.0

>  <VolSurf_%FU6>
0.0

>  <VolSurf_%FU7>
0.0

>  <VolSurf_%FU8>
0.0

>  <VolSurf_%FU9>
0.0

>  <VolSurf_%FU10>
0.0

>  <ID>
159

>  <MOKAID>
160

>  <Clearance Route>
uncertain

>  <PC1>
-1.2301799999999998

>  <PC2>
4.0456900000000005

$$$$
Doripenem
  -OEChem-08301611272D

 27 29  0     1  0  0  0  0  0999 V2000
    2.7074    1.9491    0.0000 N   0  0  0  0  0  0  0  0  0  0  0  0
    2.4945    0.9716    0.0000 C   0  0  0  0  0  0  0  0  0  0  0  0
    1.5001    0.8658    0.0000 C   0  0  1  0  0  0  0  0  0  0  0  0
    1.0941    1.7813    0.0000 C   0  0  0  0  0  0  0  0  0  0  0  0
    1.8378    2.4523    0.0000 C   0  0  1  0  0  0  0  0  0  0  0  0
    1.7333    3.4468    0.0000 C   0  0  0  0  0  0  0  0  0  0  0  0
    2.5424    4.0346    0.0000 N   0  0  0  0  0  0  0  0  0  0  0  0
    2.4379    5.0291    0.0000 S   0  0  0  0  0  0  0  0  0  0  0  0
    2.3334    6.0236    0.0000 N   0  0  0  0  0  0  0  0  0  0  0  0
    3.4324    5.1336    0.0000 O   0  0  0  0  0  0  0  0  0  0  0  0
    1.4433    4.9246    0.0000 O   0  0  0  0  0  0  0  0  0  0  0  0
    1.0000   -0.0001    0.0000 S   0  0  0  0  0  0  0  0  0  0  0  0
    0.0000    0.0000    0.0000 C   0  0  0  0  0  0  0  0  0  0  0  0
   -0.5881   -0.8091    0.0000 C   0  0  0  0  0  0  0  0  0  0  0  0
   -0.2793   -1.7602    0.0000 C   0  0  0  0  0  0  0  0  0  0  0  0
   -0.9485   -2.5032    0.0000 O   0  0  0  0  0  0  0  0  0  0  0  0
    0.6989   -1.9683    0.0000 O   0  0  0  0  0  0  0  0  0  0  0  0
   -1.5392   -0.4999    0.0000 N   0  0  0  0  0  0  0  0  0  0  0  0
   -1.5391    0.5002    0.0000 C   0  0  3  0  0  0  0  0  0  0  0  0
   -0.5878    0.8091    0.0000 C   0  0  2  0  0  0  0  0  0  0  0  0
   -0.2787    1.7601    0.0000 C   0  0  0  0  0  0  0  0  0  0  0  0
   -2.5392    0.5002    0.0000 C   0  0  1  0  0  0  0  0  0  0  0  0
   -2.5392   -0.4999    0.0000 C   0  0  0  0  0  0  0  0  0  0  0  0
   -3.2463   -1.2070    0.0000 O   0  0  0  0  0  0  0  0  0  0  0  0
   -3.2463    1.2073    0.0000 C   0  0  2  0  0  0  0  0  0  0  0  0
   -4.2122    0.9485    0.0000 C   0  0  0  0  0  0  0  0  0  0  0  0
   -2.9875    2.1732    0.0000 O   0  0  0  0  0  0  0  0  0  0  0  0
  1  5  1  0  0  0  0
  1  2  1  0  0  0  0
  2  3  1  0  0  0  0
  3  4  1  0  0  0  0
  4  5  1  0  0  0  0
  5  6  1  1  0  0  0
  6  7  1  0  0  0  0
  7  8  1  0  0  0  0
  8  9  1  0  0  0  0
  8 10  2  0  0  0  0
  8 11  2  0  0  0  0
  3 12  1  6  0  0  0
 12 13  1  0  0  0  0
 13 20  1  0  0  0  0
 13 14  2  0  0  0  0
 14 15  1  0  0  0  0
 15 16  2  0  0  0  0
 15 17  1  0  0  0  0
 14 18  1  0  0  0  0
 18 23  1  0  0  0  0
 18 19  1  0  0  0  0
 19 20  1  0  0  0  0
 20 21  1  6  0  0  0
 19 22  1  0  0  0  0
 22 23  1  1  0  0  0
 23 24  2  0  0  0  0
 22 25  1  0  0  0  0
 25 26  1  0  0  0  0
 25 27  1  6  0  0  0
M  END
>  <Name>
Doripenem

>  <CAS #>
148016-81-3

>  <human Clearance (mL/min/kg)>
3.26

>  <Primary mechanism (metabolic, biliary or renal)>
renal

>  <seqId>
309.0

>  <Code (mechanism and clearance degree index)>
R1

>  < Five M1 and R1 test groups>
R1_1

>  <formamide>
0

>  <prodrug phosphates>
0

>  <VolSurf_V>
821.25

>  <VolSurf_S>
558.29

>  <VolSurf_R>
1.47101

>  <VolSurf_G>
1.51039

>  <VolSurf_IW1>
0.0341259

>  <VolSurf_IW2>
0.0644161

>  <VolSurf_IW3>
0.250455

>  <VolSurf_IW4>
0.914853

>  <VolSurf_ID1>
0.0582654

>  <VolSurf_ID2>
0.130218

>  <VolSurf_ID3>
0.17162

>  <VolSurf_ID4>
0.193926

>  <VolSurf_HL1>
30.9825

>  <VolSurf_HL2>
27.5517

>  <VolSurf_A>
2.96814

>  <VolSurf_CP>
0.0455996

>  <VolSurf_POL>
41.112

>  <VolSurf_MW>
420.504

>  <VolSurf_FLEX>
2.26244

>  <VolSurf_FLEX_RB>
0.205676

>  <VolSurf_NCC>
2.0

>  <VolSurf_LOGP n-Oct>
-1.546

>  <VolSurf_LOGP c-Hex>
-5.546

>  <VolSurf_PSA>
201.992

>  <VolSurf_HSA>
356.298

>  <VolSurf_PSAR>
0.361806

>  <VolSurf_PHSAR>
0.566921

>  <VolSurf_LgD5>
-3.84884

>  <VolSurf_LgD6>
-3.84673

>  <VolSurf_LgD7>
-3.85048

>  <VolSurf_LgD7.5>
-3.8599

>  <VolSurf_LgD8>
-3.88833

>  <VolSurf_LgD9>
-4.14039

>  <VolSurf_LgD10>
-4.72013

>  <VolSurf_AUS7.4>
0.0

>  <VolSurf_%FU4>
0.0

>  <VolSurf_%FU5>
0.0

>  <VolSurf_%FU6>
0.0

>  <VolSurf_%FU7>
0.0

>  <VolSurf_%FU8>
0.0

>  <VolSurf_%FU9>
0.0

>  <VolSurf_%FU10>
0.0

>  <ID>
160

>  <MOKAID>
161

>  <Clearance Route>
renal

>  <PC1>
-4.53808

>  <PC2>
0.317644

$$$$
Doxazosin
  -OEChem-08301611272D

 33 37  0     1  0  0  0  0  0999 V2000
   -0.8704    2.5031    0.0000 C   0  0  0  0  0  0  0  0  0  0  0  0
   -0.8675    1.5031    0.0000 O   0  0  0  0  0  0  0  0  0  0  0  0
   -0.0000    1.0056    0.0000 C   0  0  0  0  0  0  0  0  0  0  0  0
    0.8679    1.5135    0.0000 C   0  0  0  0  0  0  0  0  0  0  0  0
    1.7358    1.0056    0.0000 C   0  0  0  0  0  0  0  0  0  0  0  0
    2.6012    1.5123    0.0000 N   0  0  0  0  0  0  0  0  0  0  0  0
    3.4735    1.0079    0.0000 C   0  0  0  0  0  0  0  0  0  0  0  0
    3.4748    0.0023    0.0000 N   0  0  0  0  0  0  0  0  0  0  0  0
    2.6038   -0.4989    0.0000 C   0  0  0  0  0  0  0  0  0  0  0  0
    2.6037   -1.4989    0.0000 N   0  0  0  0  0  0  0  0  0  0  0  0
    1.7371    0.0000    0.0000 C   0  0  0  0  0  0  0  0  0  0  0  0
    0.8679   -0.4977    0.0000 C   0  0  0  0  0  0  0  0  0  0  0  0
    0.0000    0.0000    0.0000 C   0  0  0  0  0  0  0  0  0  0  0  0
   -0.8653   -0.5013    0.0000 O   0  0  0  0  0  0  0  0  0  0  0  0
   -0.8638   -1.5013    0.0000 C   0  0  0  0  0  0  0  0  0  0  0  0
    4.3394    1.5082    0.0000 N   0  0  0  0  0  0  0  0  0  0  0  0
    5.2127    1.0110    0.0000 C   0  0  0  0  0  0  0  0  0  0  0  0
    6.0830    1.5138    0.0000 C   0  0  0  0  0  0  0  0  0  0  0  0
    6.0799    2.5138    0.0000 N   0  0  0  0  0  0  0  0  0  0  0  0
    5.2151    3.0159    0.0000 C   0  0  0  0  0  0  0  0  0  0  0  0
    4.3449    2.5131    0.0000 C   0  0  0  0  0  0  0  0  0  0  0  0
    6.9458    3.0141    0.0000 C   0  0  0  0  0  0  0  0  0  0  0  0
    7.8120    2.5144    0.0000 O   0  0  0  0  0  0  0  0  0  0  0  0
    6.9455    4.0141    0.0000 C   0  0  3  0  0  0  0  0  0  0  0  0
    6.0739    4.5158    0.0000 C   0  0  0  0  0  0  0  0  0  0  0  0
    6.0754    5.5206    0.0000 O   0  0  0  0  0  0  0  0  0  0  0  0
    6.9407    6.0218    0.0000 C   0  0  0  0  0  0  0  0  0  0  0  0
    6.9442    7.0235    0.0000 C   0  0  0  0  0  0  0  0  0  0  0  0
    7.8092    7.5262    0.0000 C   0  0  0  0  0  0  0  0  0  0  0  0
    8.6802    7.0234    0.0000 C   0  0  0  0  0  0  0  0  0  0  0  0
    8.6861    6.0179    0.0000 C   0  0  0  0  0  0  0  0  0  0  0  0
    7.8124    5.5201    0.0000 C   0  0  0  0  0  0  0  0  0  0  0  0
    7.8185    4.5173    0.0000 O   0  0  0  0  0  0  0  0  0  0  0  0
  1  2  1  0  0  0  0
  2  3  1  0  0  0  0
  3 13  2  0  0  0  0
  3  4  1  0  0  0  0
  4  5  2  0  0  0  0
  5 11  1  0  0  0  0
  5  6  1  0  0  0  0
  6  7  2  0  0  0  0
  7  8  1  0  0  0  0
  8  9  2  0  0  0  0
  9 10  1  0  0  0  0
  9 11  1  0  0  0  0
 11 12  2  0  0  0  0
 12 13  1  0  0  0  0
 13 14  1  0  0  0  0
 14 15  1  0  0  0  0
  7 16  1  0  0  0  0
 16 21  1  0  0  0  0
 16 17  1  0  0  0  0
 17 18  1  0  0  0  0
 18 19  1  0  0  0  0
 19 20  1  0  0  0  0
 20 21  1  0  0  0  0
 19 22  1  0  0  0  0
 22 23  2  0  0  0  0
 22 24  1  0  0  0  0
 24 33  1  0  0  0  0
 24 25  1  0  0  0  0
 25 26  1  0  0  0  0
 26 27  1  0  0  0  0
 27 32  2  0  0  0  0
 27 28  1  0  0  0  0
 28 29  2  0  0  0  0
 29 30  1  0  0  0  0
 30 31  2  0  0  0  0
 31 32  1  0  0  0  0
 32 33  1  0  0  0  0
M  END
>  <Name>
Doxazosin

>  <CAS #>
74191-85-8

>  <human Clearance (mL/min/kg)>
1.6

>  <Primary mechanism (metabolic, biliary or renal)>
metabolic

>  <seqId>
312.0

>  <Code (mechanism and clearance degree index)>
M1

>  < Five M1 and R1 test groups>
M1_3

>  <formamide>
0

>  <prodrug phosphates>
0

>  <VolSurf_V>
945.875

>  <VolSurf_S>
647.7

>  <VolSurf_R>
1.46036

>  <VolSurf_G>
1.63871

>  <VolSurf_IW1>
0.0311393

>  <VolSurf_IW2>
0.0865067

>  <VolSurf_IW3>
0.300044

>  <VolSurf_IW4>
0.836011

>  <VolSurf_ID1>
0.0301386

>  <VolSurf_ID2>
0.0262813

>  <VolSurf_ID3>
0.0733397

>  <VolSurf_ID4>
0.0711417

>  <VolSurf_HL1>
1.34465

>  <VolSurf_HL2>
0.797101

>  <VolSurf_A>
2.22763

>  <VolSurf_CP>
4.37015

>  <VolSurf_POL>
46.599

>  <VolSurf_MW>
451.475

>  <VolSurf_FLEX>
1.45364

>  <VolSurf_FLEX_RB>
0.181705

>  <VolSurf_NCC>
0.0

>  <VolSurf_LOGP n-Oct>
2.639

>  <VolSurf_LOGP c-Hex>
-0.785

>  <VolSurf_PSA>
120.09

>  <VolSurf_HSA>
527.61

>  <VolSurf_PSAR>
0.18541

>  <VolSurf_PHSAR>
0.227611

>  <VolSurf_LgD5>
0.999614

>  <VolSurf_LgD6>
1.91381

>  <VolSurf_LgD7>
2.48316

>  <VolSurf_LgD7.5>
2.58343

>  <VolSurf_LgD8>
2.62064

>  <VolSurf_LgD9>
2.63713

>  <VolSurf_LgD10>
2.63881

>  <VolSurf_AUS7.4>
1.93465

>  <VolSurf_%FU4>
0.231007

>  <VolSurf_%FU5>
2.2632

>  <VolSurf_%FU6>
18.8024

>  <VolSurf_%FU7>
69.8398

>  <VolSurf_%FU8>
95.8603

>  <VolSurf_%FU9>
99.57

>  <VolSurf_%FU10>
99.9568

>  <ID>
161

>  <MOKAID>
162

>  <Clearance Route>
metabolic

>  <PC1>
2.5583400000000003

>  <PC2>
-2.1025

$$$$
Edaravone
  -OEChem-08301611272D

 13 14  0     0  0  0  0  0  0999 V2000
    1.3133    0.9519    0.0000 N   0  0  0  0  0  0  0  0  0  0  0  0
    2.2648    1.2596    0.0000 C   0  0  0  0  0  0  0  0  0  0  0  0
    2.4723    2.2431    0.0000 C   0  0  0  0  0  0  0  0  0  0  0  0
    3.4238    2.5508    0.0000 C   0  0  0  0  0  0  0  0  0  0  0  0
    4.1699    1.8850    0.0000 C   0  0  0  0  0  0  0  0  0  0  0  0
    3.9624    0.9014    0.0000 C   0  0  0  0  0  0  0  0  0  0  0  0
    3.0088    0.5837    0.0000 C   0  0  0  0  0  0  0  0  0  0  0  0
    0.5008    1.5428    0.0000 N   0  0  0  0  0  0  0  0  0  0  0  0
   -0.3065    0.9519    0.0000 C   0  0  0  0  0  0  0  0  0  0  0  0
   -1.2577    1.2605    0.0000 C   0  0  0  0  0  0  0  0  0  0  0  0
    0.0000    0.0000    0.0000 C   0  0  0  0  0  0  0  0  0  0  0  0
    1.0015    0.0000    0.0000 C   0  0  0  0  0  0  0  0  0  0  0  0
    1.5883   -0.8097    0.0000 O   0  0  0  0  0  0  0  0  0  0  0  0
  1 12  1  0  0  0  0
  1  2  1  0  0  0  0
  2  7  2  0  0  0  0
  2  3  1  0  0  0  0
  3  4  2  0  0  0  0
  4  5  1  0  0  0  0
  5  6  2  0  0  0  0
  6  7  1  0  0  0  0
  1  8  1  0  0  0  0
  8  9  2  0  0  0  0
  9 10  1  0  0  0  0
  9 11  1  0  0  0  0
 11 12  1  0  0  0  0
 12 13  2  0  0  0  0
M  END
>  <Name>
Edaravone

>  <CAS #>
89-25-8

>  <human Clearance (mL/min/kg)>
1.42

>  <Primary mechanism (metabolic, biliary or renal)>
metabolic

>  <seqId>
320.0

>  <Code (mechanism and clearance degree index)>
M1

>  < Five M1 and R1 test groups>
M1_5

>  <formamide>
0

>  <prodrug phosphates>
0

>  <VolSurf_V>
436.25

>  <VolSurf_S>
315.814

>  <VolSurf_R>
1.38135

>  <VolSurf_G>
1.20972

>  <VolSurf_IW1>
0.0866035

>  <VolSurf_IW2>
0.256447

>  <VolSurf_IW3>
0.683222

>  <VolSurf_IW4>
1.20022

>  <VolSurf_ID1>
0.0375774

>  <VolSurf_ID2>
0.047736

>  <VolSurf_ID3>
0.0484734

>  <VolSurf_ID4>
0.108468

>  <VolSurf_HL1>
1.30313

>  <VolSurf_HL2>
0.966507

>  <VolSurf_A>
2.282

>  <VolSurf_CP>
4.13429

>  <VolSurf_POL>
19.206

>  <VolSurf_MW>
174.199

>  <VolSurf_FLEX>
0.21417

>  <VolSurf_FLEX_RB>
0.107085

>  <VolSurf_NCC>
0.0

>  <VolSurf_LOGP n-Oct>
2.238

>  <VolSurf_LOGP c-Hex>
0.271

>  <VolSurf_PSA>
32.71

>  <VolSurf_HSA>
283.104

>  <VolSurf_PSAR>
0.103574

>  <VolSurf_PHSAR>
0.11554

>  <VolSurf_LgD5>
2.23799

>  <VolSurf_LgD6>
2.238

>  <VolSurf_LgD7>
2.238

>  <VolSurf_LgD7.5>
2.238

>  <VolSurf_LgD8>
2.238

>  <VolSurf_LgD9>
2.238

>  <VolSurf_LgD10>
2.238

>  <VolSurf_AUS7.4>
2.0

>  <VolSurf_%FU4>
99.9747

>  <VolSurf_%FU5>
99.9975

>  <VolSurf_%FU6>
99.9997

>  <VolSurf_%FU7>
100.0

>  <VolSurf_%FU8>
100.0

>  <VolSurf_%FU9>
100.0

>  <VolSurf_%FU10>
100.0

>  <ID>
162

>  <MOKAID>
163

>  <Clearance Route>
metabolic

>  <PC1>
4.53788

>  <PC2>
2.53761

$$$$
Enalaprilat
  -OEChem-08301611272D

 25 26  0     1  0  0  0  0  0999 V2000
   -1.2328    2.5402    0.0000 C   0  0  0  0  0  0  0  0  0  0  0  0
   -0.3675    3.0415    0.0000 C   0  0  2  0  0  0  0  0  0  0  0  0
   -0.3690    4.0415    0.0000 N   0  0  0  0  0  0  0  0  0  0  0  0
   -1.2358    4.5401    0.0000 C   0  0  1  0  0  0  0  0  0  0  0  0
   -2.1011    4.0388    0.0000 C   0  0  0  0  0  0  0  0  0  0  0  0
   -2.0996    3.0388    0.0000 C   0  0  0  0  0  0  0  0  0  0  0  0
   -2.9648    2.5375    0.0000 C   0  0  0  0  0  0  0  0  0  0  0  0
   -2.9603    1.5323    0.0000 C   0  0  0  0  0  0  0  0  0  0  0  0
   -3.8256    1.0309    0.0000 C   0  0  0  0  0  0  0  0  0  0  0  0
   -4.6953    1.5245    0.0000 C   0  0  0  0  0  0  0  0  0  0  0  0
   -4.6998    2.5297    0.0000 C   0  0  0  0  0  0  0  0  0  0  0  0
   -3.8346    3.0413    0.0000 C   0  0  0  0  0  0  0  0  0  0  0  0
   -1.2374    5.5401    0.0000 C   0  0  0  0  0  0  0  0  0  0  0  0
   -0.3721    6.0415    0.0000 O   0  0  0  0  0  0  0  0  0  0  0  0
   -2.1042    6.0388    0.0000 O   0  0  0  0  0  0  0  0  0  0  0  0
    0.4993    2.5428    0.0000 C   0  0  0  0  0  0  0  0  0  0  0  0
    1.3645    3.0441    0.0000 O   0  0  0  0  0  0  0  0  0  0  0  0
    0.5008    1.5428    0.0000 N   0  0  0  0  0  0  0  0  0  0  0  0
   -0.3065    0.9519    0.0000 C   0  0  0  0  0  0  0  0  0  0  0  0
    0.0000    0.0000    0.0000 C   0  0  0  0  0  0  0  0  0  0  0  0
    1.0015    0.0000    0.0000 C   0  0  0  0  0  0  0  0  0  0  0  0
    1.3133    0.9519    0.0000 C   0  0  1  0  0  0  0  0  0  0  0  0
    2.2648    1.2596    0.0000 C   0  0  0  0  0  0  0  0  0  0  0  0
    3.0070    0.5894    0.0000 O   0  0  0  0  0  0  0  0  0  0  0  0
    2.4741    2.2374    0.0000 O   0  0  0  0  0  0  0  0  0  0  0  0
  2  1  1  6  0  0  0
  2  3  1  0  0  0  0
  3  4  1  0  0  0  0
  4  5  1  1  0  0  0
  5  6  1  0  0  0  0
  6  7  1  0  0  0  0
  7 12  2  0  0  0  0
  7  8  1  0  0  0  0
  8  9  2  0  0  0  0
  9 10  1  0  0  0  0
 10 11  2  0  0  0  0
 11 12  1  0  0  0  0
  4 13  1  0  0  0  0
 13 14  2  0  0  0  0
 13 15  1  0  0  0  0
  2 16  1  0  0  0  0
 16 17  2  0  0  0  0
 16 18  1  0  0  0  0
 18 22  1  0  0  0  0
 18 19  1  0  0  0  0
 19 20  1  0  0  0  0
 20 21  1  0  0  0  0
 21 22  1  0  0  0  0
 22 23  1  6  0  0  0
 23 24  2  0  0  0  0
 23 25  1  0  0  0  0
M  END
>  <Name>
Enalaprilat

>  <CAS #>
76420-72-9

>  <human Clearance (mL/min/kg)>
1.6

>  <Primary mechanism (metabolic, biliary or renal)>


>  <seqId>
326.0

>  <Code (mechanism and clearance degree index)>
R1

>  < Five M1 and R1 test groups>
R1_1

>  <formamide>
0

>  <prodrug phosphates>
0

>  <VolSurf_V>
777.75

>  <VolSurf_S>
520.13

>  <VolSurf_R>
1.4953

>  <VolSurf_G>
1.43417

>  <VolSurf_IW1>
0.138137

>  <VolSurf_IW2>
0.344667

>  <VolSurf_IW3>
0.619651

>  <VolSurf_IW4>
0.868013

>  <VolSurf_ID1>
0.0836339

>  <VolSurf_ID2>
0.173626

>  <VolSurf_ID3>
0.267165

>  <VolSurf_ID4>
0.306978

>  <VolSurf_HL1>
7.13393

>  <VolSurf_HL2>
8.12069

>  <VolSurf_A>
7.66343

>  <VolSurf_CP>
0.150544

>  <VolSurf_POL>
37.458

>  <VolSurf_MW>
347.385

>  <VolSurf_FLEX>
2.9411

>  <VolSurf_FLEX_RB>
0.29411

>  <VolSurf_NCC>
3.0

>  <VolSurf_LOGP n-Oct>
0.726

>  <VolSurf_LOGP c-Hex>
-2.457

>  <VolSurf_PSA>
135.9

>  <VolSurf_HSA>
384.23

>  <VolSurf_PSAR>
0.261281

>  <VolSurf_PHSAR>
0.353694

>  <VolSurf_LgD5>
-1.89855

>  <VolSurf_LgD6>
-2.78569

>  <VolSurf_LgD7>
-3.29738

>  <VolSurf_LgD7.5>
-3.42194

>  <VolSurf_LgD8>
-3.57591

>  <VolSurf_LgD9>
-4.22034

>  <VolSurf_LgD10>
-5.10476

>  <VolSurf_AUS7.4>
0.0

>  <VolSurf_%FU4>
0.0

>  <VolSurf_%FU5>
0.0

>  <VolSurf_%FU6>
0.0

>  <VolSurf_%FU7>
0.0

>  <VolSurf_%FU8>
0.0

>  <VolSurf_%FU9>
0.0

>  <VolSurf_%FU10>
0.0

>  <ID>
163

>  <MOKAID>
164

>  <Clearance Route>
renal

>  <PC1>
-2.53638

>  <PC2>
1.4714

$$$$
Encainide
  -OEChem-08301611272D

 26 28  0     1  0  0  0  0  0999 V2000
   -2.5843    7.5166    0.0000 C   0  0  0  0  0  0  0  0  0  0  0  0
   -2.5901    6.5166    0.0000 O   0  0  0  0  0  0  0  0  0  0  0  0
   -1.7270    6.0115    0.0000 C   0  0  0  0  0  0  0  0  0  0  0  0
   -0.8550    6.5116    0.0000 C   0  0  0  0  0  0  0  0  0  0  0  0
    0.0081    6.0066    0.0000 C   0  0  0  0  0  0  0  0  0  0  0  0
    0.0081    5.0066    0.0000 C   0  0  0  0  0  0  0  0  0  0  0  0
   -0.8639    4.5065    0.0000 C   0  0  0  0  0  0  0  0  0  0  0  0
   -1.7359    5.0064    0.0000 C   0  0  0  0  0  0  0  0  0  0  0  0
    0.8734    4.5053    0.0000 C   0  0  0  0  0  0  0  0  0  0  0  0
    0.8719    3.5053    0.0000 O   0  0  0  0  0  0  0  0  0  0  0  0
    1.7401    5.0040    0.0000 N   0  0  0  0  0  0  0  0  0  0  0  0
    2.6054    4.5028    0.0000 C   0  0  0  0  0  0  0  0  0  0  0  0
    3.4729    5.0003    0.0000 C   0  0  0  0  0  0  0  0  0  0  0  0
    4.3404    4.5028    0.0000 C   0  0  0  0  0  0  0  0  0  0  0  0
    4.3404    3.4976    0.0000 C   0  0  0  0  0  0  0  0  0  0  0  0
    3.4729    2.9899    0.0000 C   0  0  0  0  0  0  0  0  0  0  0  0
    2.6054    3.4976    0.0000 C   0  0  0  0  0  0  0  0  0  0  0  0
    1.7379    3.0001    0.0000 C   0  0  0  0  0  0  0  0  0  0  0  0
    1.7350    2.0001    0.0000 C   0  0  0  0  0  0  0  0  0  0  0  0
    0.8675    1.5027    0.0000 C   0  0  3  0  0  0  0  0  0  0  0  0
    0.8675    0.4975    0.0000 C   0  0  0  0  0  0  0  0  0  0  0  0
    0.0000    0.0000    0.0000 C   0  0  0  0  0  0  0  0  0  0  0  0
   -0.8675    0.4975    0.0000 C   0  0  0  0  0  0  0  0  0  0  0  0
   -0.8675    1.5027    0.0000 C   0  0  0  0  0  0  0  0  0  0  0  0
    0.0000    2.0104    0.0000 N   0  0  3  0  0  0  0  0  0  0  0  0
    0.0000    3.0104    0.0000 C   0  0  0  0  0  0  0  0  0  0  0  0
  1  2  1  0  0  0  0
  2  3  1  0  0  0  0
  3  8  2  0  0  0  0
  3  4  1  0  0  0  0
  4  5  2  0  0  0  0
  5  6  1  0  0  0  0
  6  7  2  0  0  0  0
  7  8  1  0  0  0  0
  6  9  1  0  0  0  0
  9 10  2  0  0  0  0
  9 11  1  0  0  0  0
 11 12  1  0  0  0  0
 12 17  2  0  0  0  0
 12 13  1  0  0  0  0
 13 14  2  0  0  0  0
 14 15  1  0  0  0  0
 15 16  2  0  0  0  0
 16 17  1  0  0  0  0
 17 18  1  0  0  0  0
 18 19  1  0  0  0  0
 19 20  1  0  0  0  0
 20 25  1  0  0  0  0
 20 21  1  0  0  0  0
 21 22  1  0  0  0  0
 22 23  1  0  0  0  0
 23 24  1  0  0  0  0
 24 25  1  0  0  0  0
 25 26  1  0  0  0  0
M  END
>  <Name>
Encainide

>  <CAS #>
66778-36-7

>  <human Clearance (mL/min/kg)>
13.0

>  <Primary mechanism (metabolic, biliary or renal)>


>  <seqId>
327.0

>  <Code (mechanism and clearance degree index)>
M1

>  < Five M1 and R1 test groups>
M1_3

>  <formamide>
0

>  <prodrug phosphates>
0

>  <VolSurf_V>
850.125

>  <VolSurf_S>
555.315

>  <VolSurf_R>
1.53089

>  <VolSurf_G>
1.44744

>  <VolSurf_IW1>
0.0441413

>  <VolSurf_IW2>
0.170507

>  <VolSurf_IW3>
0.412735

>  <VolSurf_IW4>
0.913773

>  <VolSurf_ID1>
0.0292944

>  <VolSurf_ID2>
0.0488896

>  <VolSurf_ID3>
0.119603

>  <VolSurf_ID4>
0.164609

>  <VolSurf_HL1>
1.1971

>  <VolSurf_HL2>
0.967391

>  <VolSurf_A>
2.32534

>  <VolSurf_CP>
1.96298

>  <VolSurf_POL>
42.853

>  <VolSurf_MW>
353.478

>  <VolSurf_FLEX>
2.00319

>  <VolSurf_FLEX_RB>
0.250399

>  <VolSurf_NCC>
1.0

>  <VolSurf_LOGP n-Oct>
4.691

>  <VolSurf_LOGP c-Hex>
3.611

>  <VolSurf_PSA>
51.94

>  <VolSurf_HSA>
503.375

>  <VolSurf_PSAR>
0.0935325

>  <VolSurf_PHSAR>
0.103184

>  <VolSurf_LgD5>
2.14622

>  <VolSurf_LgD6>
2.2287

>  <VolSurf_LgD7>
2.663

>  <VolSurf_LgD7.5>
3.05893

>  <VolSurf_LgD8>
3.5038

>  <VolSurf_LgD9>
4.29426

>  <VolSurf_LgD10>
4.62958

>  <VolSurf_AUS7.4>
0.369854

>  <VolSurf_%FU4>
6.65193E-4

>  <VolSurf_%FU5>
0.00665153

>  <VolSurf_%FU6>
0.0664755

>  <VolSurf_%FU7>
0.660801

>  <VolSurf_%FU8>
6.23707

>  <VolSurf_%FU9>
39.9438

>  <VolSurf_%FU10>
86.7757

>  <ID>
164

>  <MOKAID>
165

>  <Clearance Route>
metabolic

>  <PC1>
2.8159400000000003

>  <PC2>
-1.9105599999999998

$$$$
Enprofylline
  -OEChem-08301611272D

 14 15  0     0  0  0  0  0  0999 V2000
    0.8646   -4.5121    0.0000 C   0  0  0  0  0  0  0  0  0  0  0  0
    0.8652   -3.5121    0.0000 C   0  0  0  0  0  0  0  0  0  0  0  0
   -0.0006   -3.0116    0.0000 C   0  0  0  0  0  0  0  0  0  0  0  0
    0.0000   -2.0116    0.0000 N   0  0  0  0  0  0  0  0  0  0  0  0
   -0.8680   -1.5137    0.0000 C   0  0  0  0  0  0  0  0  0  0  0  0
   -1.7333   -2.0149    0.0000 O   0  0  0  0  0  0  0  0  0  0  0  0
   -0.8680   -0.5079    0.0000 N   0  0  0  0  0  0  0  0  0  0  0  0
    0.0000    0.0000    0.0000 C   0  0  0  0  0  0  0  0  0  0  0  0
   -0.0000    1.0000    0.0000 O   0  0  0  0  0  0  0  0  0  0  0  0
    0.8680   -0.5079    0.0000 C   0  0  0  0  0  0  0  0  0  0  0  0
    1.8258   -0.1969    0.0000 N   0  0  0  0  0  0  0  0  0  0  0  0
    2.4178   -1.0115    0.0000 C   0  0  0  0  0  0  0  0  0  0  0  0
    1.8258   -1.8263    0.0000 N   0  0  0  0  0  0  0  0  0  0  0  0
    0.8680   -1.5150    0.0000 C   0  0  0  0  0  0  0  0  0  0  0  0
  1  2  1  0  0  0  0
  2  3  1  0  0  0  0
  3  4  1  0  0  0  0
  4 14  1  0  0  0  0
  4  5  1  0  0  0  0
  5  6  2  0  0  0  0
  5  7  1  0  0  0  0
  7  8  1  0  0  0  0
  8  9  2  0  0  0  0
  8 10  1  0  0  0  0
 10 14  2  0  0  0  0
 10 11  1  0  0  0  0
 11 12  2  0  0  0  0
 12 13  1  0  0  0  0
 13 14  1  0  0  0  0
M  END
>  <Name>
Enprofylline

>  <CAS #>
41078-02-8

>  <human Clearance (mL/min/kg)>
4.0

>  <Primary mechanism (metabolic, biliary or renal)>
renal

>  <seqId>
331.0

>  <Code (mechanism and clearance degree index)>
R1

>  < Five M1 and R1 test groups>
R1_2

>  <formamide>
0

>  <prodrug phosphates>
0

>  <VolSurf_V>
429.25

>  <VolSurf_S>
316.171

>  <VolSurf_R>
1.35765

>  <VolSurf_G>
1.23154

>  <VolSurf_IW1>
0.226224

>  <VolSurf_IW2>
0.470293

>  <VolSurf_IW3>
0.991262

>  <VolSurf_IW4>
1.36235

>  <VolSurf_ID1>
0.0616016

>  <VolSurf_ID2>
0.117318

>  <VolSurf_ID3>
0.138637

>  <VolSurf_ID4>
0.148612

>  <VolSurf_HL1>
4.09767

>  <VolSurf_HL2>
3.19595

>  <VolSurf_A>
3.48136

>  <VolSurf_CP>
0.688262

>  <VolSurf_POL>
18.392

>  <VolSurf_MW>
193.183

>  <VolSurf_FLEX>
0.384981

>  <VolSurf_FLEX_RB>
0.128327

>  <VolSurf_NCC>
1.0

>  <VolSurf_LOGP n-Oct>
-0.0749999

>  <VolSurf_LOGP c-Hex>
-2.364

>  <VolSurf_PSA>
61.81

>  <VolSurf_HSA>
254.361

>  <VolSurf_PSAR>
0.195495

>  <VolSurf_PHSAR>
0.243001

>  <VolSurf_LgD5>
-0.133329

>  <VolSurf_LgD6>
-0.449218

>  <VolSurf_LgD7>
-1.23981

>  <VolSurf_LgD7.5>
-1.7154

>  <VolSurf_LgD8>
-2.1972

>  <VolSurf_LgD9>
-3.07027

>  <VolSurf_LgD10>
-3.61497

>  <VolSurf_AUS7.4>
0.54736

>  <VolSurf_%FU4>
92.2295

>  <VolSurf_%FU5>
87.4282

>  <VolSurf_%FU6>
42.2274

>  <VolSurf_%FU7>
6.81258

>  <VolSurf_%FU8>
0.723454

>  <VolSurf_%FU9>
0.070563

>  <VolSurf_%FU10>
0.0053896

>  <ID>
165

>  <MOKAID>
166

>  <Clearance Route>
uncertain

>  <PC1>
-0.38945799999999997

>  <PC2>
4.50671

$$$$
Entacapone
  -OEChem-08301611272D

 22 22  0     0  0  0  0  0  0999 V2000
   -5.2020    2.9899    0.0000 C   0  0  0  0  0  0  0  0  0  0  0  0
   -4.3375    3.4925    0.0000 C   0  0  0  0  0  0  0  0  0  0  0  0
   -3.4700    2.9950    0.0000 N   0  0  0  0  0  0  0  0  0  0  0  0
   -3.4670    1.9950    0.0000 C   0  0  0  0  0  0  0  0  0  0  0  0
   -4.3316    1.4925    0.0000 C   0  0  0  0  0  0  0  0  0  0  0  0
   -2.6054    3.4976    0.0000 C   0  0  0  0  0  0  0  0  0  0  0  0
   -2.6084    4.4976    0.0000 O   0  0  0  0  0  0  0  0  0  0  0  0
   -1.7379    3.0001    0.0000 C   0  0  0  0  0  0  0  0  0  0  0  0
   -1.7350    2.0001    0.0000 C   0  0  0  0  0  0  0  0  0  0  0  0
   -0.8675    1.5027    0.0000 C   0  0  0  0  0  0  0  0  0  0  0  0
   -0.8675    0.4975    0.0000 C   0  0  0  0  0  0  0  0  0  0  0  0
    0.0000    0.0000    0.0000 C   0  0  0  0  0  0  0  0  0  0  0  0
    0.0000   -1.0000    0.0000 O   0  0  0  0  0  0  0  0  0  0  0  0
    0.8675    0.4975    0.0000 C   0  0  0  0  0  0  0  0  0  0  0  0
    1.7328   -0.0038    0.0000 O   0  0  0  0  0  0  0  0  0  0  0  0
    0.8675    1.5027    0.0000 C   0  0  0  0  0  0  0  0  0  0  0  0
   -0.0000    2.0104    0.0000 C   0  0  0  0  0  0  0  0  0  0  0  0
    1.7350    2.0001    0.0000 N   0  0  0  0  0  0  0  0  0  0  0  0
    1.7379    3.0001    0.0000 O   0  0  0  0  0  0  0  0  0  0  0  0
    2.5995    1.4976    0.0000 O   0  0  0  0  0  0  0  0  0  0  0  0
   -0.8734    3.5027    0.0000 C   0  0  0  0  0  0  0  0  0  0  0  0
   -0.0089    4.0052    0.0000 N   0  0  0  0  0  0  0  0  0  0  0  0
  1  2  1  0  0  0  0
  2  3  1  0  0  0  0
  3  4  1  0  0  0  0
  4  5  1  0  0  0  0
  3  6  1  0  0  0  0
  6  7  2  0  0  0  0
  6  8  1  0  0  0  0
  8  9  2  0  0  0  0
  9 10  1  0  0  0  0
 10 17  2  0  0  0  0
 10 11  1  0  0  0  0
 11 12  2  0  0  0  0
 12 13  1  0  0  0  0
 12 14  1  0  0  0  0
 14 15  1  0  0  0  0
 14 16  2  0  0  0  0
 16 17  1  0  0  0  0
 16 18  1  0  0  0  0
 18 19  2  0  0  0  0
 18 20  2  0  0  0  0
  8 21  1  0  0  0  0
 21 22  3  0  0  0  0
M  END
>  <Name>
Entacapone

>  <CAS #>
130929-57-6

>  <human Clearance (mL/min/kg)>
12.0

>  <Primary mechanism (metabolic, biliary or renal)>
metabolism

>  <seqId>
332.0

>  <Code (mechanism and clearance degree index)>
M1

>  < Five M1 and R1 test groups>
M1_4

>  <formamide>
0

>  <prodrug phosphates>
0

>  <VolSurf_V>
662.875

>  <VolSurf_S>
444.798

>  <VolSurf_R>
1.49028

>  <VolSurf_G>
1.33072

>  <VolSurf_IW1>
0.0921814

>  <VolSurf_IW2>
0.213412

>  <VolSurf_IW3>
0.45115

>  <VolSurf_IW4>
0.696708

>  <VolSurf_ID1>
0.0618767

>  <VolSurf_ID2>
0.0662467

>  <VolSurf_ID3>
0.10242

>  <VolSurf_ID4>
0.168334

>  <VolSurf_HL1>
1.70588

>  <VolSurf_HL2>
1.11012

>  <VolSurf_A>
2.74598

>  <VolSurf_CP>
1.81111

>  <VolSurf_POL>
29.138

>  <VolSurf_MW>
304.278

>  <VolSurf_FLEX>
1.26076

>  <VolSurf_FLEX_RB>
0.126076

>  <VolSurf_NCC>
1.0

>  <VolSurf_LOGP n-Oct>
1.586

>  <VolSurf_LOGP c-Hex>
-0.611

>  <VolSurf_PSA>
124.31

>  <VolSurf_HSA>
320.488

>  <VolSurf_PSAR>
0.279475

>  <VolSurf_PHSAR>
0.387877

>  <VolSurf_LgD5>
0.805306

>  <VolSurf_LgD6>
0.160661

>  <VolSurf_LgD7>
-0.0610185

>  <VolSurf_LgD7.5>
-0.0839785

>  <VolSurf_LgD8>
-0.0915705

>  <VolSurf_LgD9>
-0.0956187

>  <VolSurf_LgD10>
-0.104592

>  <VolSurf_AUS7.4>
0.0

>  <VolSurf_%FU4>
63.4524

>  <VolSurf_%FU5>
14.7933

>  <VolSurf_%FU6>
1.70653

>  <VolSurf_%FU7>
0.173311

>  <VolSurf_%FU8>
0.0173546

>  <VolSurf_%FU9>
0.00173217

>  <VolSurf_%FU10>
1.69733E-4

>  <ID>
166

>  <MOKAID>
167

>  <Clearance Route>
uncertain

>  <PC1>
-0.450978

>  <PC2>
0.808469

$$$$
Eptaloprost
  -OEChem-08301611272D

 31 32  0     1  0  0  0  0  0999 V2000
   -5.9648    3.5244    0.0000 O   0  0  0  0  0  0  0  0  0  0  0  0
   -5.4736    2.6533    0.0000 C   0  0  0  0  0  0  0  0  0  0  0  0
   -4.4736    2.6433    0.0000 C   0  0  0  0  0  0  0  0  0  0  0  0
   -3.9824    1.7723    0.0000 C   0  0  0  0  0  0  0  0  0  0  0  0
   -2.9824    1.7622    0.0000 C   0  0  0  0  0  0  0  0  0  0  0  0
   -2.4912    0.8912    0.0000 O   0  0  0  0  0  0  0  0  0  0  0  0
   -1.4912    0.8811    0.0000 C   0  0  0  0  0  0  0  0  0  0  0  0
   -0.9999    0.0101    0.0000 C   0  0  0  0  0  0  0  0  0  0  0  0
    0.0000    0.0000    0.0000 C   0  0  0  0  0  0  0  0  0  0  0  0
    0.5797   -0.8148    0.0000 C   0  0  0  0  0  0  0  0  0  0  0  0
    1.5339   -0.5155    0.0000 C   0  0  1  0  0  0  0  0  0  0  0  0
    2.4888   -0.8311    0.0000 C   0  0  0  0  0  0  0  0  0  0  0  0
    3.0840   -0.0206    0.0000 C   0  0  2  0  0  0  0  0  0  0  0  0
    2.4969    0.7960    0.0000 C   0  0  1  0  0  0  0  0  0  0  0  0
    2.8074    1.7466    0.0000 C   0  0  0  0  0  0  0  0  0  0  0  0
    3.1180    2.6971    0.0000 C   0  0  0  0  0  0  0  0  0  0  0  0
    3.4285    3.6477    0.0000 C   0  0  2  0  0  0  0  0  0  0  0  0
    2.7606    4.3919    0.0000 C   0  0  1  0  0  0  0  0  0  0  0  0
    1.7821    4.1855    0.0000 C   0  0  0  0  0  0  0  0  0  0  0  0
    3.0711    5.3425    0.0000 C   0  0  0  0  0  0  0  0  0  0  0  0
    2.4032    6.0867    0.0000 C   0  0  0  0  0  0  0  0  0  0  0  0
    1.7352    6.8309    0.0000 C   0  0  0  0  0  0  0  0  0  0  0  0
    1.0673    7.5751    0.0000 C   0  0  0  0  0  0  0  0  0  0  0  0
    0.0888    7.3688    0.0000 C   0  0  0  0  0  0  0  0  0  0  0  0
    4.4070    3.8540    0.0000 O   0  0  0  0  0  0  0  0  0  0  0  0
    1.5440    0.4845    0.0000 C   0  0  1  0  0  0  0  0  0  0  0  0
    0.5961    0.8031    0.0000 C   0  0  0  0  0  0  0  0  0  0  0  0
    4.0840   -0.0256    0.0000 O   0  0  0  0  0  0  0  0  0  0  0  0
   -5.9823    1.7924    0.0000 O   0  0  0  0  0  0  0  0  0  0  0  0
    1.5263   -1.5155    0.0000 H   0  0  0  0  0  0  0  0  0  0  0  0
    1.5482    1.4845    0.0000 H   0  0  0  0  0  0  0  0  0  0  0  0
  1  2  1  0  0  0  0
  2  3  1  0  0  0  0
  3  4  1  0  0  0  0
  4  5  1  0  0  0  0
  5  6  1  0  0  0  0
  6  7  1  0  0  0  0
  7  8  1  0  0  0  0
  8  9  2  3  0  0  0
  9 27  1  0  0  0  0
  9 10  1  0  0  0  0
 10 11  1  0  0  0  0
 11 26  1  0  0  0  0
 11 12  1  0  0  0  0
 12 13  1  0  0  0  0
 13 14  1  0  0  0  0
 14 15  1  6  0  0  0
 15 16  3  0  0  0  0
 16 17  1  0  0  0  0
 17 18  1  0  0  0  0
 18 19  1  1  0  0  0
 18 20  1  0  0  0  0
 20 21  1  0  0  0  0
 21 22  3  0  0  0  0
 22 23  1  0  0  0  0
 23 24  1  0  0  0  0
 17 25  1  6  0  0  0
 14 26  1  0  0  0  0
 26 27  1  0  0  0  0
 13 28  1  6  0  0  0
  2 29  2  0  0  0  0
 11 30  1  1  0  0  0
 26 31  1  1  0  0  0
M  END
>  <Name>
Eptaloprost

>  <CAS #>
90693-76-8

>  <human Clearance (mL/min/kg)>
66.2

>  <Primary mechanism (metabolic, biliary or renal)>
metabolic

>  <seqId>
337.0

>  <Code (mechanism and clearance degree index)>
M1

>  < Five M1 and R1 test groups>
M1_3

>  <formamide>
0

>  <prodrug phosphates>
0

>  <VolSurf_V>
993.75

>  <VolSurf_S>
699.148

>  <VolSurf_R>
1.42137

>  <VolSurf_G>
1.74924

>  <VolSurf_IW1>
0.0482128

>  <VolSurf_IW2>
0.138881

>  <VolSurf_IW3>
0.290424

>  <VolSurf_IW4>
0.412813

>  <VolSurf_ID1>
0.0448991

>  <VolSurf_ID2>
0.111488

>  <VolSurf_ID3>
0.159149

>  <VolSurf_ID4>
0.161328

>  <VolSurf_HL1>
3.00398

>  <VolSurf_HL2>
2.70569

>  <VolSurf_A>
5.35189

>  <VolSurf_CP>
0.442126

>  <VolSurf_POL>
42.893

>  <VolSurf_MW>
401.516

>  <VolSurf_FLEX>
3.61508

>  <VolSurf_FLEX_RB>
0.225943

>  <VolSurf_NCC>
1.0

>  <VolSurf_LOGP n-Oct>
2.954

>  <VolSurf_LOGP c-Hex>
-3.034

>  <VolSurf_PSA>
99.11

>  <VolSurf_HSA>
600.038

>  <VolSurf_PSAR>
0.141758

>  <VolSurf_PHSAR>
0.165173

>  <VolSurf_LgD5>
2.37069

>  <VolSurf_LgD6>
1.49178

>  <VolSurf_LgD7>
0.552034

>  <VolSurf_LgD7.5>
0.148284

>  <VolSurf_LgD8>
-0.141199

>  <VolSurf_LgD9>
-0.359311

>  <VolSurf_LgD10>
-0.388645

>  <VolSurf_AUS7.4>
0.0

>  <VolSurf_%FU4>
77.9067

>  <VolSurf_%FU5>
26.0697

>  <VolSurf_%FU6>
3.40614

>  <VolSurf_%FU7>
0.351386

>  <VolSurf_%FU8>
0.0352501

>  <VolSurf_%FU9>
0.0035261

>  <VolSurf_%FU10>
3.52601E-4

>  <ID>
167

>  <MOKAID>
168

>  <Clearance Route>
possible billary

>  <PC1>
-0.0864125

>  <PC2>
-2.08422

$$$$
Erlotinib
  -OEChem-08301611272D

 29 31  0     0  0  0  0  0  0999 V2000
    2.6012    1.5123    0.0000 N   0  0  0  0  0  0  0  0  0  0  0  0
    3.4735    1.0079    0.0000 C   0  0  0  0  0  0  0  0  0  0  0  0
    3.4748    0.0023    0.0000 N   0  0  0  0  0  0  0  0  0  0  0  0
    2.6038   -0.4989    0.0000 C   0  0  0  0  0  0  0  0  0  0  0  0
    1.7371    0.0000    0.0000 C   0  0  0  0  0  0  0  0  0  0  0  0
    0.8679   -0.4977    0.0000 C   0  0  0  0  0  0  0  0  0  0  0  0
    0.0000    0.0000    0.0000 C   0  0  0  0  0  0  0  0  0  0  0  0
   -0.0000    1.0056    0.0000 C   0  0  0  0  0  0  0  0  0  0  0  0
    0.8679    1.5135    0.0000 C   0  0  0  0  0  0  0  0  0  0  0  0
    1.7358    1.0056    0.0000 C   0  0  0  0  0  0  0  0  0  0  0  0
   -0.8675    1.5031    0.0000 O   0  0  0  0  0  0  0  0  0  0  0  0
   -1.7320    1.0005    0.0000 C   0  0  0  0  0  0  0  0  0  0  0  0
   -2.5995    1.4980    0.0000 C   0  0  0  0  0  0  0  0  0  0  0  0
   -3.4641    0.9954    0.0000 O   0  0  0  0  0  0  0  0  0  0  0  0
   -4.3316    1.4929    0.0000 C   0  0  0  0  0  0  0  0  0  0  0  0
   -0.8653   -0.5013    0.0000 O   0  0  0  0  0  0  0  0  0  0  0  0
   -0.8638   -1.5013    0.0000 C   0  0  0  0  0  0  0  0  0  0  0  0
   -1.7291   -2.0025    0.0000 C   0  0  0  0  0  0  0  0  0  0  0  0
   -1.7277   -3.0025    0.0000 O   0  0  0  0  0  0  0  0  0  0  0  0
   -2.5930   -3.5038    0.0000 C   0  0  0  0  0  0  0  0  0  0  0  0
    2.6037   -1.4989    0.0000 N   0  0  0  0  0  0  0  0  0  0  0  0
    3.4697   -1.9990    0.0000 C   0  0  0  0  0  0  0  0  0  0  0  0
    3.4667   -3.0041    0.0000 C   0  0  0  0  0  0  0  0  0  0  0  0
    4.3415   -3.4990    0.0000 C   0  0  0  0  0  0  0  0  0  0  0  0
    5.2106   -2.9939    0.0000 C   0  0  0  0  0  0  0  0  0  0  0  0
    5.2048   -1.9939    0.0000 C   0  0  0  0  0  0  0  0  0  0  0  0
    4.3388   -1.4939    0.0000 C   0  0  0  0  0  0  0  0  0  0  0  0
    4.3474   -4.4990    0.0000 C   0  0  0  0  0  0  0  0  0  0  0  0
    4.3532   -5.4990    0.0000 C   0  0  0  0  0  0  0  0  0  0  0  0
  1 10  2  0  0  0  0
  1  2  1  0  0  0  0
  2  3  2  0  0  0  0
  3  4  1  0  0  0  0
  4  5  2  0  0  0  0
  5 10  1  0  0  0  0
  5  6  1  0  0  0  0
  6  7  2  0  0  0  0
  7  8  1  0  0  0  0
  8  9  2  0  0  0  0
  9 10  1  0  0  0  0
  8 11  1  0  0  0  0
 11 12  1  0  0  0  0
 12 13  1  0  0  0  0
 13 14  1  0  0  0  0
 14 15  1  0  0  0  0
  7 16  1  0  0  0  0
 16 17  1  0  0  0  0
 17 18  1  0  0  0  0
 18 19  1  0  0  0  0
 19 20  1  0  0  0  0
  4 21  1  0  0  0  0
 21 22  1  0  0  0  0
 22 27  2  0  0  0  0
 22 23  1  0  0  0  0
 23 24  2  0  0  0  0
 24 25  1  0  0  0  0
 25 26  2  0  0  0  0
 26 27  1  0  0  0  0
 24 28  1  0  0  0  0
 28 29  3  0  0  0  0
M  END
>  <Name>
Erlotinib

>  <CAS #>
183321-74-6

>  <human Clearance (mL/min/kg)>
1.23

>  <Primary mechanism (metabolic, biliary or renal)>
metabolic

>  <seqId>
342.0

>  <Code (mechanism and clearance degree index)>
M1

>  < Five M1 and R1 test groups>
M1_1

>  <formamide>
0

>  <prodrug phosphates>
0

>  <VolSurf_V>
924.125

>  <VolSurf_S>
642.095

>  <VolSurf_R>
1.43923

>  <VolSurf_G>
1.65555

>  <VolSurf_IW1>
0.0314517

>  <VolSurf_IW2>
0.110722

>  <VolSurf_IW3>
0.239028

>  <VolSurf_IW4>
0.760178

>  <VolSurf_ID1>
0.094142

>  <VolSurf_ID2>
0.14478

>  <VolSurf_ID3>
0.162736

>  <VolSurf_ID4>
0.149212

>  <VolSurf_HL1>
1.08403

>  <VolSurf_HL2>
0.641283

>  <VolSurf_A>
4.78505

>  <VolSurf_CP>
0.931911

>  <VolSurf_POL>
42.459

>  <VolSurf_MW>
393.436

>  <VolSurf_FLEX>
2.36708

>  <VolSurf_FLEX_RB>
0.182083

>  <VolSurf_NCC>
0.0

>  <VolSurf_LOGP n-Oct>
3.773

>  <VolSurf_LOGP c-Hex>
0.564

>  <VolSurf_PSA>
85.21

>  <VolSurf_HSA>
556.885

>  <VolSurf_PSAR>
0.132706

>  <VolSurf_PHSAR>
0.153012

>  <VolSurf_LgD5>
3.2216

>  <VolSurf_LgD6>
3.67396

>  <VolSurf_LgD7>
3.76202

>  <VolSurf_LgD7.5>
3.7695

>  <VolSurf_LgD8>
3.77189

>  <VolSurf_LgD9>
3.77289

>  <VolSurf_LgD10>
3.77299

>  <VolSurf_AUS7.4>
1.99865

>  <VolSurf_%FU4>
3.75584

>  <VolSurf_%FU5>
28.07

>  <VolSurf_%FU6>
79.6019

>  <VolSurf_%FU7>
97.5015

>  <VolSurf_%FU8>
99.7444

>  <VolSurf_%FU9>
99.9744

>  <VolSurf_%FU10>
99.9974

>  <ID>
168

>  <MOKAID>
169

>  <Clearance Route>
metabolic

>  <PC1>
3.7113

>  <PC2>
-1.38028

$$$$
Esmolol
  -OEChem-08301611272D

 21 21  0     1  0  0  0  0  0999 V2000
    3.4759    4.9950    0.0000 C   0  0  0  0  0  0  0  0  0  0  0  0
    2.6084    4.4976    0.0000 O   0  0  0  0  0  0  0  0  0  0  0  0
    2.6054    3.4976    0.0000 C   0  0  0  0  0  0  0  0  0  0  0  0
    3.4700    2.9950    0.0000 O   0  0  0  0  0  0  0  0  0  0  0  0
    1.7379    3.0001    0.0000 C   0  0  0  0  0  0  0  0  0  0  0  0
    1.7350    2.0001    0.0000 C   0  0  0  0  0  0  0  0  0  0  0  0
    0.8675    1.5027    0.0000 C   0  0  0  0  0  0  0  0  0  0  0  0
    0.8675    0.4975    0.0000 C   0  0  0  0  0  0  0  0  0  0  0  0
    0.0000    0.0000    0.0000 C   0  0  0  0  0  0  0  0  0  0  0  0
   -0.8675    0.4975    0.0000 C   0  0  0  0  0  0  0  0  0  0  0  0
   -1.7328   -0.0038    0.0000 O   0  0  0  0  0  0  0  0  0  0  0  0
   -1.7313   -1.0038    0.0000 C   0  0  0  0  0  0  0  0  0  0  0  0
   -2.5966   -1.5050    0.0000 C   0  0  3  0  0  0  0  0  0  0  0  0
   -3.4634   -1.0063    0.0000 O   0  0  0  0  0  0  0  0  0  0  0  0
   -2.5952   -2.5050    0.0000 C   0  0  0  0  0  0  0  0  0  0  0  0
   -3.4605   -3.0063    0.0000 N   0  0  0  0  0  0  0  0  0  0  0  0
   -3.4590   -4.0063    0.0000 C   0  0  0  0  0  0  0  0  0  0  0  0
   -2.5923   -4.5050    0.0000 C   0  0  0  0  0  0  0  0  0  0  0  0
   -4.3243   -4.5075    0.0000 C   0  0  0  0  0  0  0  0  0  0  0  0
   -0.8675    1.5027    0.0000 C   0  0  0  0  0  0  0  0  0  0  0  0
    0.0000    2.0104    0.0000 C   0  0  0  0  0  0  0  0  0  0  0  0
  1  2  1  0  0  0  0
  2  3  1  0  0  0  0
  3  4  2  0  0  0  0
  3  5  1  0  0  0  0
  5  6  1  0  0  0  0
  6  7  1  0  0  0  0
  7 21  2  0  0  0  0
  7  8  1  0  0  0  0
  8  9  2  0  0  0  0
  9 10  1  0  0  0  0
 10 11  1  0  0  0  0
 11 12  1  0  0  0  0
 12 13  1  0  0  0  0
 13 14  1  0  0  0  0
 13 15  1  0  0  0  0
 15 16  1  0  0  0  0
 16 17  1  0  0  0  0
 17 18  1  0  0  0  0
 17 19  1  0  0  0  0
 10 20  2  0  0  0  0
 20 21  1  0  0  0  0
M  END
>  <Name>
Esmolol

>  <CAS #>
81147-92-4

>  <human Clearance (mL/min/kg)>
290.0

>  <Primary mechanism (metabolic, biliary or renal)>
metabolic

>  <seqId>
347.0

>  <Code (mechanism and clearance degree index)>
M1

>  < Five M1 and R1 test groups>
M1_1

>  <formamide>
0

>  <prodrug phosphates>
0

>  <VolSurf_V>
749.375

>  <VolSurf_S>
526.582

>  <VolSurf_R>
1.42309

>  <VolSurf_G>
1.51626

>  <VolSurf_IW1>
0.0410936

>  <VolSurf_IW2>
0.109903

>  <VolSurf_IW3>
0.166059

>  <VolSurf_IW4>
0.28114

>  <VolSurf_ID1>
0.0379005

>  <VolSurf_ID2>
0.0418422

>  <VolSurf_ID3>
0.101834

>  <VolSurf_ID4>
0.114338

>  <VolSurf_HL1>
2.4708

>  <VolSurf_HL2>
2.60294

>  <VolSurf_A>
1.8022

>  <VolSurf_CP>
1.4371

>  <VolSurf_POL>
35.055

>  <VolSurf_MW>
296.382

>  <VolSurf_FLEX>
2.1443

>  <VolSurf_FLEX_RB>
0.153164

>  <VolSurf_NCC>
1.0

>  <VolSurf_LOGP n-Oct>
1.963

>  <VolSurf_LOGP c-Hex>
2.104

>  <VolSurf_PSA>
81.54

>  <VolSurf_HSA>
445.042

>  <VolSurf_PSAR>
0.154848

>  <VolSurf_PHSAR>
0.183219

>  <VolSurf_LgD5>
-1.41233

>  <VolSurf_LgD6>
-1.03468

>  <VolSurf_LgD7>
-0.20399

>  <VolSurf_LgD7.5>
0.274262

>  <VolSurf_LgD8>
0.750665

>  <VolSurf_LgD9>
1.55849

>  <VolSurf_LgD10>
1.90084

>  <VolSurf_AUS7.4>
0.362752

>  <VolSurf_%FU4>
6.49557E-4

>  <VolSurf_%FU5>
0.00649519

>  <VolSurf_%FU6>
0.064914

>  <VolSurf_%FU7>
0.645369

>  <VolSurf_%FU8>
6.09942

>  <VolSurf_%FU9>
39.3778

>  <VolSurf_%FU10>
86.6588

>  <ID>
169

>  <MOKAID>
170

>  <Clearance Route>
possible billary

>  <PC1>
0.48556099999999996

>  <PC2>
-0.651857

$$$$
Esomeprazole
  -OEChem-08301611272D

 24 26  0     1  0  0  0  0  0999 V2000
    1.7360    1.0058    0.0000 C   0  0  0  0  0  0  0  0  0  0  0  0
    1.7360   -0.0013    0.0000 C   0  0  0  0  0  0  0  0  0  0  0  0
    2.6938   -0.3126    0.0000 N   0  0  0  0  0  0  0  0  0  0  0  0
    3.2858    0.5022    0.0000 C   0  0  0  0  0  0  0  0  0  0  0  0
    2.6938    1.3168    0.0000 N   0  0  0  0  0  0  0  0  0  0  0  0
    4.2858    0.5023    0.0000 S   0  0  1  0  0  0  0  0  0  0  0  0
    4.7857    1.3683    0.0000 C   0  0  0  0  0  0  0  0  0  0  0  0
    5.7857    1.3684    0.0000 C   0  0  0  0  0  0  0  0  0  0  0  0
    6.2857    2.2404    0.0000 C   0  0  0  0  0  0  0  0  0  0  0  0
    7.2858    2.2405    0.0000 C   0  0  0  0  0  0  0  0  0  0  0  0
    7.7909    1.3774    0.0000 C   0  0  0  0  0  0  0  0  0  0  0  0
    8.7909    1.3819    0.0000 C   0  0  0  0  0  0  0  0  0  0  0  0
    7.2909    0.5054    0.0000 C   0  0  0  0  0  0  0  0  0  0  0  0
    6.2858    0.4964    0.0000 N   0  0  0  0  0  0  0  0  0  0  0  0
    7.7832    3.1080    0.0000 O   0  0  0  0  0  0  0  0  0  0  0  0
    7.2805    3.9726    0.0000 C   0  0  0  0  0  0  0  0  0  0  0  0
    5.7844    3.1057    0.0000 C   0  0  0  0  0  0  0  0  0  0  0  0
    4.7859   -0.3637    0.0000 O   0  0  0  0  0  0  0  0  0  0  0  0
    0.8680   -0.4979    0.0000 C   0  0  0  0  0  0  0  0  0  0  0  0
    0.0000    0.0000    0.0000 C   0  0  0  0  0  0  0  0  0  0  0  0
   -0.0000    1.0058    0.0000 C   0  0  0  0  0  0  0  0  0  0  0  0
    0.8680    1.5137    0.0000 C   0  0  0  0  0  0  0  0  0  0  0  0
   -0.8675    1.5033    0.0000 O   0  0  0  0  0  0  0  0  0  0  0  0
   -1.7320    1.0008    0.0000 C   0  0  0  0  0  0  0  0  0  0  0  0
  1  5  1  0  0  0  0
  1 22  2  0  0  0  0
  1  2  1  0  0  0  0
  2  3  1  0  0  0  0
  3  4  1  0  0  0  0
  4  5  2  0  0  0  0
  4  6  1  0  0  0  0
  6  7  1  1  0  0  0
  7  8  1  0  0  0  0
  8 14  2  0  0  0  0
  8  9  1  0  0  0  0
  9 10  2  0  0  0  0
 10 11  1  0  0  0  0
 11 12  1  0  0  0  0
 11 13  2  0  0  0  0
 13 14  1  0  0  0  0
 10 15  1  0  0  0  0
 15 16  1  0  0  0  0
  9 17  1  0  0  0  0
  6 18  2  0  0  0  0
  2 19  2  0  0  0  0
 19 20  1  0  0  0  0
 20 21  2  0  0  0  0
 21 22  1  0  0  0  0
 21 23  1  0  0  0  0
 23 24  1  0  0  0  0
M  END
>  <Name>
Esomeprazole

>  <CAS #>
119141-88-7

>  <human Clearance (mL/min/kg)>
3.85

>  <Primary mechanism (metabolic, biliary or renal)>
metabolic

>  <seqId>
348.0

>  <Code (mechanism and clearance degree index)>
M1

>  < Five M1 and R1 test groups>
M1_1

>  <formamide>
0

>  <prodrug phosphates>
0

>  <VolSurf_V>
756.875

>  <VolSurf_S>
527.903

>  <VolSurf_R>
1.43374

>  <VolSurf_G>
1.50689

>  <VolSurf_IW1>
0.0393208

>  <VolSurf_IW2>
0.107509

>  <VolSurf_IW3>
0.32883

>  <VolSurf_IW4>
0.743322

>  <VolSurf_ID1>
0.0378138

>  <VolSurf_ID2>
0.085198

>  <VolSurf_ID3>
0.135209

>  <VolSurf_ID4>
0.167343

>  <VolSurf_HL1>
2.57939

>  <VolSurf_HL2>
1.86383

>  <VolSurf_A>
2.98372

>  <VolSurf_CP>
0.846255

>  <VolSurf_POL>
36.943

>  <VolSurf_MW>
345.416

>  <VolSurf_FLEX>
2.07126

>  <VolSurf_FLEX_RB>
0.23014

>  <VolSurf_NCC>
0.0

>  <VolSurf_LOGP n-Oct>
2.241

>  <VolSurf_LOGP c-Hex>
1.37

>  <VolSurf_PSA>
97.68

>  <VolSurf_HSA>
430.223

>  <VolSurf_PSAR>
0.185034

>  <VolSurf_PHSAR>
0.227045

>  <VolSurf_LgD5>
2.13047

>  <VolSurf_LgD6>
2.22822

>  <VolSurf_LgD7>
2.23318

>  <VolSurf_LgD7.5>
2.22005

>  <VolSurf_LgD8>
2.17889

>  <VolSurf_LgD9>
1.83718

>  <VolSurf_LgD10>
1.02951

>  <VolSurf_AUS7.4>
1.98625

>  <VolSurf_%FU4>
22.0044

>  <VolSurf_%FU5>
77.5235

>  <VolSurf_%FU6>
97.1

>  <VolSurf_%FU7>
98.2145

>  <VolSurf_%FU8>
86.6694

>  <VolSurf_%FU9>
39.443

>  <VolSurf_%FU10>
6.11517

>  <ID>
170

>  <MOKAID>
171

>  <Clearance Route>
metabolic

>  <PC1>
2.40254

>  <PC2>
-0.485874

$$$$
Estradiol
  -OEChem-08301611272D

 23 26  0     1  0  0  0  0  0999 V2000
    4.3460    3.5184    0.0000 C   0  0  0  0  0  0  0  0  0  0  0  0
    4.3490    2.5184    0.0000 C   0  0  2  0  0  0  0  0  0  0  0  0
    3.4743    3.0237    0.0000 C   0  0  0  0  0  0  0  0  0  0  0  0
    2.5967    2.5196    0.0000 C   0  0  0  0  0  0  0  0  0  0  0  0
    2.6012    1.5123    0.0000 C   0  0  1  0  0  0  0  0  0  0  0  0
    3.4759    1.0071    0.0000 C   0  0  1  0  0  0  0  0  0  0  0  0
    3.4748    0.0023    0.0000 C   0  0  0  0  0  0  0  0  0  0  0  0
    2.6037   -0.4989    0.0000 C   0  0  0  0  0  0  0  0  0  0  0  0
    1.7371    0.0000    0.0000 C   0  0  0  0  0  0  0  0  0  0  0  0
    0.8679   -0.4977    0.0000 C   0  0  0  0  0  0  0  0  0  0  0  0
    0.0000    0.0000    0.0000 C   0  0  0  0  0  0  0  0  0  0  0  0
   -0.8653   -0.5013    0.0000 O   0  0  0  0  0  0  0  0  0  0  0  0
    0.0000    1.0056    0.0000 C   0  0  0  0  0  0  0  0  0  0  0  0
    0.8679    1.5135    0.0000 C   0  0  0  0  0  0  0  0  0  0  0  0
    1.7358    1.0056    0.0000 C   0  0  0  0  0  0  0  0  0  0  0  0
    4.3477    1.5084    0.0000 C   0  0  2  0  0  0  0  0  0  0  0  0
    6.0915    1.5061    0.0000 C   0  0  0  0  0  0  0  0  0  0  0  0
    6.0928    2.5162    0.0000 C   0  0  0  0  0  0  0  0  0  0  0  0
    5.2187    3.0279    0.0000 C   0  0  2  0  0  0  0  0  0  0  0  0
    5.2185    4.0279    0.0000 O   0  0  0  0  0  0  0  0  0  0  0  0
    1.7325    2.0077    0.0000 H   0  0  0  0  0  0  0  0  0  0  0  0
    4.3412    0.5059    0.0000 H   0  0  0  0  0  0  0  0  0  0  0  0
    4.6050    0.5421    0.0000 H   0  0  0  0  0  0  0  0  0  0  0  0
  2  1  1  1  0  0  0
  2 16  1  0  0  0  0
  2 19  1  0  0  0  0
  2  3  1  0  0  0  0
  3  4  1  0  0  0  0
  4  5  1  0  0  0  0
  5 15  1  0  0  0  0
  5  6  1  0  0  0  0
  6  7  1  0  0  0  0
  7  8  1  0  0  0  0
  8  9  1  0  0  0  0
  9 15  2  0  0  0  0
  9 10  1  0  0  0  0
 10 11  2  0  0  0  0
 11 12  1  0  0  0  0
 11 13  1  0  0  0  0
 13 14  2  0  0  0  0
 14 15  1  0  0  0  0
  6 16  1  0  0  0  0
 16 17  1  0  0  0  0
 17 18  1  0  0  0  0
 18 19  1  0  0  0  0
 19 20  1  1  0  0  0
  5 21  1  6  0  0  0
  6 22  1  1  0  0  0
 16 23  1  6  0  0  0
M  END
>  <Name>
Estradiol

>  <CAS #>
50-28-2

>  <human Clearance (mL/min/kg)>
30.0

>  <Primary mechanism (metabolic, biliary or renal)>
metabolic

>  <seqId>
349.0

>  <Code (mechanism and clearance degree index)>
M1

>  < Five M1 and R1 test groups>
M1_3

>  <formamide>
0

>  <prodrug phosphates>
0

>  <VolSurf_V>
613.125

>  <VolSurf_S>
397.493

>  <VolSurf_R>
1.54248

>  <VolSurf_G>
1.2154

>  <VolSurf_IW1>
0.0798967

>  <VolSurf_IW2>
0.313461

>  <VolSurf_IW3>
0.678699

>  <VolSurf_IW4>
1.01797

>  <VolSurf_ID1>
0.0481415

>  <VolSurf_ID2>
0.11883

>  <VolSurf_ID3>
0.211258

>  <VolSurf_ID4>
0.321155

>  <VolSurf_HL1>
1.41346

>  <VolSurf_HL2>
1.44118

>  <VolSurf_A>
5.50064

>  <VolSurf_CP>
0.886802

>  <VolSurf_POL>
31.406

>  <VolSurf_MW>
272.382

>  <VolSurf_FLEX>
1.92743E-6

>  <VolSurf_FLEX_RB>
6.42475E-7

>  <VolSurf_NCC>
0.0

>  <VolSurf_LOGP n-Oct>
3.71

>  <VolSurf_LOGP c-Hex>
-0.487

>  <VolSurf_PSA>
40.46

>  <VolSurf_HSA>
357.033

>  <VolSurf_PSAR>
0.101788

>  <VolSurf_PHSAR>
0.113323

>  <VolSurf_LgD5>
3.71

>  <VolSurf_LgD6>
3.71

>  <VolSurf_LgD7>
3.70996

>  <VolSurf_LgD7.5>
3.70988

>  <VolSurf_LgD8>
3.70962

>  <VolSurf_LgD9>
3.70626

>  <VolSurf_LgD10>
3.674

>  <VolSurf_AUS7.4>
2.0

>  <VolSurf_%FU4>
100.0

>  <VolSurf_%FU5>
99.9999

>  <VolSurf_%FU6>
99.9991

>  <VolSurf_%FU7>
99.9913

>  <VolSurf_%FU8>
99.9131

>  <VolSurf_%FU9>
99.1373

>  <VolSurf_%FU10>
91.9948

>  <ID>
171

>  <MOKAID>
172

>  <Clearance Route>
metabolic

>  <PC1>
5.18813

>  <PC2>
1.7285700000000002

$$$$
Ethambutol
  -OEChem-08301611272D

 14 13  0     1  0  0  0  0  0999 V2000
    0.0000    0.0000    0.0000 C   0  0  0  0  0  0  0  0  0  0  0  0
    1.0000    0.0000    0.0000 C   0  0  0  0  0  0  0  0  0  0  0  0
    1.5000    0.8660    0.0000 C   0  0  1  0  0  0  0  0  0  0  0  0
    1.0000    1.7321    0.0000 C   0  0  0  0  0  0  0  0  0  0  0  0
    0.0000    1.7321    0.0000 O   0  0  0  0  0  0  0  0  0  0  0  0
    2.5000    0.8660    0.0000 N   0  0  0  0  0  0  0  0  0  0  0  0
    3.0000    1.7321    0.0000 C   0  0  0  0  0  0  0  0  0  0  0  0
    4.0000    1.7321    0.0000 C   0  0  0  0  0  0  0  0  0  0  0  0
    4.5000    2.5981    0.0000 N   0  0  0  0  0  0  0  0  0  0  0  0
    5.5000    2.5981    0.0000 C   0  0  1  0  0  0  0  0  0  0  0  0
    6.0000    3.4641    0.0000 C   0  0  0  0  0  0  0  0  0  0  0  0
    5.5000    4.3301    0.0000 C   0  0  0  0  0  0  0  0  0  0  0  0
    6.0000    1.7320    0.0000 C   0  0  0  0  0  0  0  0  0  0  0  0
    7.0000    1.7320    0.0000 O   0  0  0  0  0  0  0  0  0  0  0  0
  1  2  1  0  0  0  0
  3  2  1  1  0  0  0
  3  4  1  0  0  0  0
  4  5  1  0  0  0  0
  3  6  1  0  0  0  0
  6  7  1  0  0  0  0
  7  8  1  0  0  0  0
  8  9  1  0  0  0  0
  9 10  1  0  0  0  0
 10 11  1  1  0  0  0
 11 12  1  0  0  0  0
 10 13  1  0  0  0  0
 13 14  1  0  0  0  0
M  END
>  <Name>
Ethambutol

>  <CAS #>
74-55-5

>  <human Clearance (mL/min/kg)>
10.0

>  <Primary mechanism (metabolic, biliary or renal)>
renal

>  <seqId>
352.0

>  <Code (mechanism and clearance degree index)>
R1

>  < Five M1 and R1 test groups>
R1_2

>  <formamide>
0

>  <prodrug phosphates>
0

>  <VolSurf_V>
535.75

>  <VolSurf_S>
402.074

>  <VolSurf_R>
1.33247

>  <VolSurf_G>
1.41505

>  <VolSurf_IW1>
0.0574279

>  <VolSurf_IW2>
0.11625

>  <VolSurf_IW3>
0.2446

>  <VolSurf_IW4>
0.500326

>  <VolSurf_ID1>
0.0394815

>  <VolSurf_ID2>
0.117692

>  <VolSurf_ID3>
0.0

>  <VolSurf_ID4>
0.0

>  <VolSurf_HL1>
118.857

>  <VolSurf_HL2>
95.75

>  <VolSurf_A>
3.27365

>  <VolSurf_CP>
0.0114752

>  <VolSurf_POL>
26.023

>  <VolSurf_MW>
205.318

>  <VolSurf_FLEX>
2.32094

>  <VolSurf_FLEX_RB>
0.178534

>  <VolSurf_NCC>
1.0

>  <VolSurf_LOGP n-Oct>
-0.376

>  <VolSurf_LOGP c-Hex>
-3.102

>  <VolSurf_PSA>
76.07

>  <VolSurf_HSA>
326.004

>  <VolSurf_PSAR>
0.189194

>  <VolSurf_PHSAR>
0.233341

>  <VolSurf_LgD5>
-4.49995

>  <VolSurf_LgD6>
-3.74501

>  <VolSurf_LgD7>
-2.94561

>  <VolSurf_LgD7.5>
-2.47552

>  <VolSurf_LgD8>
-1.99214

>  <VolSurf_LgD9>
-1.08096

>  <VolSurf_LgD10>
-0.524398

>  <VolSurf_AUS7.4>
0.114907

>  <VolSurf_%FU4>
5.87726E-6

>  <VolSurf_%FU5>
4.835E-4

>  <VolSurf_%FU6>
0.017431

>  <VolSurf_%FU7>
0.235224

>  <VolSurf_%FU8>
2.38561

>  <VolSurf_%FU9>
19.6972

>  <VolSurf_%FU10>
71.0459

>  <ID>
172

>  <MOKAID>
173

>  <Clearance Route>
renal

>  <PC1>
-2.25572

>  <PC2>
1.10751

$$$$
Etomidate
  -OEChem-08301611272D

 18 19  0     1  0  0  0  0  0999 V2000
   -2.8535    0.9260    0.0000 C   0  0  0  0  0  0  0  0  0  0  0  0
   -2.6452   -0.0521    0.0000 C   0  0  0  0  0  0  0  0  0  0  0  0
   -1.6941   -0.3608    0.0000 O   0  0  0  0  0  0  0  0  0  0  0  0
   -0.9512    0.3087    0.0000 C   0  0  0  0  0  0  0  0  0  0  0  0
   -1.1595    1.2867    0.0000 O   0  0  0  0  0  0  0  0  0  0  0  0
    0.0000    0.0000    0.0000 C   0  0  0  0  0  0  0  0  0  0  0  0
    0.3065   -0.9519    0.0000 C   0  0  0  0  0  0  0  0  0  0  0  0
    1.3079   -0.9519    0.0000 N   0  0  0  0  0  0  0  0  0  0  0  0
    1.6196    0.0000    0.0000 C   0  0  0  0  0  0  0  0  0  0  0  0
    0.8072    0.5907    0.0000 N   0  0  0  0  0  0  0  0  0  0  0  0
    0.8057    1.5907    0.0000 C   0  0  2  0  0  0  0  0  0  0  0  0
   -0.0611    2.0894    0.0000 C   0  0  0  0  0  0  0  0  0  0  0  0
    1.6709    2.0920    0.0000 C   0  0  0  0  0  0  0  0  0  0  0  0
    2.5407    1.5882    0.0000 C   0  0  0  0  0  0  0  0  0  0  0  0
    3.4061    2.0895    0.0000 C   0  0  0  0  0  0  0  0  0  0  0  0
    3.4104    3.0895    0.0000 C   0  0  0  0  0  0  0  0  0  0  0  0
    2.5406    3.5933    0.0000 C   0  0  0  0  0  0  0  0  0  0  0  0
    1.6664    3.0972    0.0000 C   0  0  0  0  0  0  0  0  0  0  0  0
  1  2  1  0  0  0  0
  2  3  1  0  0  0  0
  3  4  1  0  0  0  0
  4  5  2  0  0  0  0
  4  6  1  0  0  0  0
  6 10  1  0  0  0  0
  6  7  2  0  0  0  0
  7  8  1  0  0  0  0
  8  9  2  0  0  0  0
  9 10  1  0  0  0  0
 10 11  1  0  0  0  0
 11 12  1  6  0  0  0
 11 13  1  0  0  0  0
 13 18  2  0  0  0  0
 13 14  1  0  0  0  0
 14 15  2  0  0  0  0
 15 16  1  0  0  0  0
 16 17  2  0  0  0  0
 17 18  1  0  0  0  0
M  END
>  <Name>
Etomidate

>  <CAS #>
33125-97-2

>  <human Clearance (mL/min/kg)>
13.0

>  <Primary mechanism (metabolic, biliary or renal)>
metabolic

>  <seqId>
358.0

>  <Code (mechanism and clearance degree index)>
M1

>  < Five M1 and R1 test groups>
M1_4

>  <formamide>
0

>  <prodrug phosphates>
0

>  <VolSurf_V>
594.25

>  <VolSurf_S>
419.673

>  <VolSurf_R>
1.41598

>  <VolSurf_G>
1.36041

>  <VolSurf_IW1>
0.0609626

>  <VolSurf_IW2>
0.209562

>  <VolSurf_IW3>
0.295238

>  <VolSurf_IW4>
0.309523

>  <VolSurf_ID1>
0.0649699

>  <VolSurf_ID2>
0.11394

>  <VolSurf_ID3>
0.117028

>  <VolSurf_ID4>
0.115046

>  <VolSurf_HL1>
1.40283

>  <VolSurf_HL2>
1.26994

>  <VolSurf_A>
2.82397

>  <VolSurf_CP>
1.09987

>  <VolSurf_POL>
27.282

>  <VolSurf_MW>
244.289

>  <VolSurf_FLEX>
1.42266

>  <VolSurf_FLEX_RB>
0.203236

>  <VolSurf_NCC>
0.0

>  <VolSurf_LOGP n-Oct>
2.753

>  <VolSurf_LOGP c-Hex>
2.518

>  <VolSurf_PSA>
41.94

>  <VolSurf_HSA>
377.733

>  <VolSurf_PSAR>
0.099935

>  <VolSurf_PHSAR>
0.111031

>  <VolSurf_LgD5>
2.73217

>  <VolSurf_LgD6>
2.75087

>  <VolSurf_LgD7>
2.75279

>  <VolSurf_LgD7.5>
2.75293

>  <VolSurf_LgD8>
2.75298

>  <VolSurf_LgD9>
2.753

>  <VolSurf_LgD10>
2.753

>  <VolSurf_AUS7.4>
2.0

>  <VolSurf_%FU4>
67.047

>  <VolSurf_%FU5>
95.3153

>  <VolSurf_%FU6>
99.5109

>  <VolSurf_%FU7>
99.9509

>  <VolSurf_%FU8>
99.9951

>  <VolSurf_%FU9>
99.9995

>  <VolSurf_%FU10>
100.0

>  <ID>
173

>  <MOKAID>
174

>  <Clearance Route>
metabolic

>  <PC1>
4.206259999999999

>  <PC2>
0.7807189999999999

$$$$
Etoricoxib
  -OEChem-08301611272D

 24 26  0     0  0  0  0  0  0999 V2000
    1.7350    2.0001    0.0000 C   0  0  0  0  0  0  0  0  0  0  0  0
    0.8675    1.5027    0.0000 C   0  0  0  0  0  0  0  0  0  0  0  0
    0.8675    0.4975    0.0000 C   0  0  0  0  0  0  0  0  0  0  0  0
    0.0000    0.0000    0.0000 C   0  0  0  0  0  0  0  0  0  0  0  0
   -0.8675    0.4975    0.0000 C   0  0  0  0  0  0  0  0  0  0  0  0
   -0.8675    1.5027    0.0000 C   0  0  0  0  0  0  0  0  0  0  0  0
    0.0000    2.0104    0.0000 N   0  0  0  0  0  0  0  0  0  0  0  0
   -1.7328   -0.0038    0.0000 C   0  0  0  0  0  0  0  0  0  0  0  0
   -2.6025    0.5001    0.0000 N   0  0  0  0  0  0  0  0  0  0  0  0
   -3.4678   -0.0114    0.0000 C   0  0  0  0  0  0  0  0  0  0  0  0
   -3.4634   -1.0166    0.0000 C   0  0  0  0  0  0  0  0  0  0  0  0
   -4.3264   -1.5216    0.0000 Cl  0  0  0  0  0  0  0  0  0  0  0  0
   -2.5937   -1.5103    0.0000 C   0  0  0  0  0  0  0  0  0  0  0  0
   -1.7284   -1.0089    0.0000 C   0  0  0  0  0  0  0  0  0  0  0  0
   -0.8609   -1.5064    0.0000 C   0  0  0  0  0  0  0  0  0  0  0  0
    0.0067   -0.9987    0.0000 C   0  0  0  0  0  0  0  0  0  0  0  0
    0.8742   -1.4961    0.0000 C   0  0  0  0  0  0  0  0  0  0  0  0
    0.8830   -2.4961    0.0000 C   0  0  0  0  0  0  0  0  0  0  0  0
    0.0155   -3.0038    0.0000 C   0  0  0  0  0  0  0  0  0  0  0  0
   -0.8609   -2.5115    0.0000 C   0  0  0  0  0  0  0  0  0  0  0  0
    1.7527   -2.9897    0.0000 S   0  0  0  0  0  0  0  0  0  0  0  0
    2.2463   -2.1200    0.0000 O   0  0  0  0  0  0  0  0  0  0  0  0
    1.2591   -3.8594    0.0000 O   0  0  0  0  0  0  0  0  0  0  0  0
    2.6224   -3.4833    0.0000 C   0  0  0  0  0  0  0  0  0  0  0  0
  1  2  1  0  0  0  0
  2  7  2  0  0  0  0
  2  3  1  0  0  0  0
  3  4  2  0  0  0  0
  4  5  1  0  0  0  0
  5  6  2  0  0  0  0
  6  7  1  0  0  0  0
  5  8  1  0  0  0  0
  8 14  2  0  0  0  0
  8  9  1  0  0  0  0
  9 10  2  0  0  0  0
 10 11  1  0  0  0  0
 11 12  1  0  0  0  0
 11 13  2  0  0  0  0
 13 14  1  0  0  0  0
 14 15  1  0  0  0  0
 15 20  2  0  0  0  0
 15 16  1  0  0  0  0
 16 17  2  0  0  0  0
 17 18  1  0  0  0  0
 18 19  2  0  0  0  0
 19 20  1  0  0  0  0
 18 21  1  0  0  0  0
 21 22  2  0  0  0  0
 21 23  2  0  0  0  0
 21 24  1  0  0  0  0
M  END
>  <Name>
Etoricoxib

>  <CAS #>
202409-33-4

>  <human Clearance (mL/min/kg)>
0.79

>  <Primary mechanism (metabolic, biliary or renal)>
metabolic

>  <seqId>
361.0

>  <Code (mechanism and clearance degree index)>
M1

>  < Five M1 and R1 test groups>
M1_4

>  <formamide>
0

>  <prodrug phosphates>
0

>  <VolSurf_V>
754.0

>  <VolSurf_S>
509.145

>  <VolSurf_R>
1.48092

>  <VolSurf_G>
1.43273

>  <VolSurf_IW1>
0.0162754

>  <VolSurf_IW2>
0.0669038

>  <VolSurf_IW3>
0.195922

>  <VolSurf_IW4>
1.47335

>  <VolSurf_ID1>
0.0552726

>  <VolSurf_ID2>
0.105283

>  <VolSurf_ID3>
0.123451

>  <VolSurf_ID4>
0.141742

>  <VolSurf_HL1>
0.958665

>  <VolSurf_HL2>
0.350365

>  <VolSurf_A>
2.77508

>  <VolSurf_CP>
1.60672

>  <VolSurf_POL>
38.208

>  <VolSurf_MW>
358.841

>  <VolSurf_FLEX>
0.800701

>  <VolSurf_FLEX_RB>
0.16014

>  <VolSurf_NCC>
0.0

>  <VolSurf_LOGP n-Oct>
3.497

>  <VolSurf_LOGP c-Hex>
1.156

>  <VolSurf_PSA>
67.4225

>  <VolSurf_HSA>
441.722

>  <VolSurf_PSAR>
0.132423

>  <VolSurf_PHSAR>
0.152636

>  <VolSurf_LgD5>
3.4247

>  <VolSurf_LgD6>
3.48921

>  <VolSurf_LgD7>
3.49621

>  <VolSurf_LgD7.5>
3.49675

>  <VolSurf_LgD8>
3.49692

>  <VolSurf_LgD9>
3.49699

>  <VolSurf_LgD10>
3.497

>  <VolSurf_AUS7.4>
2.0

>  <VolSurf_%FU4>
35.4242

>  <VolSurf_%FU5>
84.6586

>  <VolSurf_%FU6>
98.2211

>  <VolSurf_%FU7>
99.8192

>  <VolSurf_%FU8>
99.9819

>  <VolSurf_%FU9>
99.9982

>  <VolSurf_%FU10>
99.9998

>  <ID>
174

>  <MOKAID>
175

>  <Clearance Route>
metabolic

>  <PC1>
4.49488

>  <PC2>
-0.14763900000000002

$$$$
Exatecan (acid)
  -OEChem-08301611272D

 32 37  0     1  0  0  0  0  0999 V2000
    0.0000    0.0000    0.0000 O   0  0  0  0  0  0  0  0  0  0  0  0
    0.0000   -1.0055    0.0000 C   0  0  0  0  0  0  0  0  0  0  0  0
    0.8679   -1.5031    0.0000 C   0  0  1  0  0  0  0  0  0  0  0  0
    1.7369   -1.0055    0.0000 C   0  0  0  0  0  0  0  0  0  0  0  0
    2.6036   -1.5043    0.0000 C   0  0  0  0  0  0  0  0  0  0  0  0
    3.4792   -1.0056    0.0000 C   0  0  0  0  0  0  0  0  0  0  0  0
    3.4732    0.0023    0.0000 N   0  0  0  0  0  0  0  0  0  0  0  0
    2.6011    0.5067    0.0000 C   0  0  0  0  0  0  0  0  0  0  0  0
    1.7357   -0.0000    0.0000 C   0  0  0  0  0  0  0  0  0  0  0  0
    0.8679    0.5079    0.0000 C   0  0  0  0  0  0  0  0  0  0  0  0
    2.5984    1.5067    0.0000 O   0  0  0  0  0  0  0  0  0  0  0  0
    4.3375    0.5170    0.0000 C   0  0  0  0  0  0  0  0  0  0  0  0
    5.2134    0.0126    0.0000 C   0  0  0  0  0  0  0  0  0  0  0  0
    6.0826    0.5285    0.0000 C   0  0  0  0  0  0  0  0  0  0  0  0
    6.9681    0.0205    0.0000 C   0  0  0  0  0  0  0  0  0  0  0  0
    6.9670   -0.9905    0.0000 C   0  0  0  0  0  0  0  0  0  0  0  0
    7.8431   -1.4934    0.0000 C   0  0  0  0  0  0  0  0  0  0  0  0
    8.7224   -0.9862    0.0000 C   0  0  0  0  0  0  0  0  0  0  0  0
    8.7199    0.0295    0.0000 C   0  0  0  0  0  0  0  0  0  0  0  0
    7.8460    0.5307    0.0000 C   0  0  0  0  0  0  0  0  0  0  0  0
    7.8459    1.5509    0.0000 C   0  0  0  0  0  0  0  0  0  0  0  0
    6.9602    2.0589    0.0000 C   0  0  0  0  0  0  0  0  0  0  0  0
    6.0746    1.5467    0.0000 C   0  0  2  0  0  0  0  0  0  0  0  0
    5.2064    2.0430    0.0000 N   0  0  0  0  0  0  0  0  0  0  0  0
    9.5846    0.5318    0.0000 C   0  0  0  0  0  0  0  0  0  0  0  0
    9.5889   -1.4853    0.0000 F   0  0  0  0  0  0  0  0  0  0  0  0
    6.0972   -1.4985    0.0000 N   0  0  0  0  0  0  0  0  0  0  0  0
    5.2208   -1.0009    0.0000 C   0  0  0  0  0  0  0  0  0  0  0  0
    1.5096   -2.2700    0.0000 C   0  0  0  0  0  0  0  0  0  0  0  0
    1.1663   -3.2092    0.0000 C   0  0  0  0  0  0  0  0  0  0  0  0
    0.2257   -2.2697    0.0000 O   0  0  0  0  0  0  0  0  0  0  0  0
   -0.8653   -1.5068    0.0000 O   0  0  0  0  0  0  0  0  0  0  0  0
  1 10  1  0  0  0  0
  1  2  1  0  0  0  0
  2  3  1  0  0  0  0
  3  4  1  0  0  0  0
  4  9  2  0  0  0  0
  4  5  1  0  0  0  0
  5  6  2  0  0  0  0
  6 28  1  0  0  0  0
  6  7  1  0  0  0  0
  7  8  1  0  0  0  0
  8  9  1  0  0  0  0
  9 10  1  0  0  0  0
  8 11  2  0  0  0  0
  7 12  1  0  0  0  0
 12 13  1  0  0  0  0
 13 28  2  0  0  0  0
 13 14  1  0  0  0  0
 14 23  1  0  0  0  0
 14 15  2  0  0  0  0
 15 20  1  0  0  0  0
 15 16  1  0  0  0  0
 16 17  1  0  0  0  0
 17 18  2  0  0  0  0
 18 19  1  0  0  0  0
 19 20  2  0  0  0  0
 20 21  1  0  0  0  0
 21 22  1  0  0  0  0
 22 23  1  0  0  0  0
 23 24  1  1  0  0  0
 19 25  1  0  0  0  0
 18 26  1  0  0  0  0
 16 27  2  0  0  0  0
 27 28  1  0  0  0  0
  3 29  1  0  0  0  0
 29 30  1  0  0  0  0
  3 31  1  6  0  0  0
  2 32  2  0  0  0  0
M  END
>  <Name>
Exatecan (acid)

>  <CAS #>
276680-63-8

>  <human Clearance (mL/min/kg)>
0.96

>  <Primary mechanism (metabolic, biliary or renal)>
metabolic

>  <seqId>
362.0

>  <Code (mechanism and clearance degree index)>
M1

>  < Five M1 and R1 test groups>
M1_4

>  <formamide>
0

>  <prodrug phosphates>
0

>  <VolSurf_V>
829.875

>  <VolSurf_S>
565.899

>  <VolSurf_R>
1.46647

>  <VolSurf_G>
1.52535

>  <VolSurf_IW1>
0.0695241

>  <VolSurf_IW2>
0.142902

>  <VolSurf_IW3>
0.35646

>  <VolSurf_IW4>
0.760888

>  <VolSurf_ID1>
0.0564959

>  <VolSurf_ID2>
0.076445

>  <VolSurf_ID3>
0.0941919

>  <VolSurf_ID4>
0.102009

>  <VolSurf_HL1>
4.16949

>  <VolSurf_HL2>
2.67355

>  <VolSurf_A>
3.65478

>  <VolSurf_CP>
0.692966

>  <VolSurf_POL>
43.844

>  <VolSurf_MW>
435.448

>  <VolSurf_FLEX>
0.0961042

>  <VolSurf_FLEX_RB>
0.0192208

>  <VolSurf_NCC>
0.0

>  <VolSurf_LOGP n-Oct>
1.953

>  <VolSurf_LOGP c-Hex>
-1.399

>  <VolSurf_PSA>
110.66

>  <VolSurf_HSA>
455.239

>  <VolSurf_PSAR>
0.195547

>  <VolSurf_PHSAR>
0.243081

>  <VolSurf_LgD5>
-0.351833

>  <VolSurf_LgD6>
0.605076

>  <VolSurf_LgD7>
1.45588

>  <VolSurf_LgD7.5>
1.72799

>  <VolSurf_LgD8>
1.86699

>  <VolSurf_LgD9>
1.92386

>  <VolSurf_LgD10>
1.78219

>  <VolSurf_AUS7.4>
1.73741

>  <VolSurf_%FU4>
0.0463587

>  <VolSurf_%FU5>
0.464184

>  <VolSurf_%FU6>
4.45803

>  <VolSurf_%FU7>
31.8117

>  <VolSurf_%FU8>
82.0277

>  <VolSurf_%FU9>
93.5081

>  <VolSurf_%FU10>
67.4718

>  <ID>
175

>  <MOKAID>
176

>  <Clearance Route>
metabolic

>  <PC1>
1.39384

>  <PC2>
-0.464566

$$$$
Famotidine
  -OEChem-08301611272D

 20 20  0     0  0  0  0  0  0999 V2000
    3.4252    2.5453    0.0000 N   0  0  0  0  0  0  0  0  0  0  0  0
    2.4738    2.2375    0.0000 C   0  0  0  0  0  0  0  0  0  0  0  0
    1.7315    2.9076    0.0000 N   0  0  0  0  0  0  0  0  0  0  0  0
    2.2646    1.2597    0.0000 N   0  0  0  0  0  0  0  0  0  0  0  0
    1.3131    0.9519    0.0000 C   0  0  0  0  0  0  0  0  0  0  0  0
    1.0014    0.0000    0.0000 N   0  0  0  0  0  0  0  0  0  0  0  0
    0.0000    0.0000    0.0000 C   0  0  0  0  0  0  0  0  0  0  0  0
   -0.5889   -0.8082    0.0000 C   0  0  0  0  0  0  0  0  0  0  0  0
   -0.1833   -1.7223    0.0000 S   0  0  0  0  0  0  0  0  0  0  0  0
   -0.7722   -2.5306    0.0000 C   0  0  0  0  0  0  0  0  0  0  0  0
   -0.3667   -3.4446    0.0000 C   0  0  0  0  0  0  0  0  0  0  0  0
   -0.9555   -4.2529    0.0000 C   0  0  0  0  0  0  0  0  0  0  0  0
   -1.9499   -4.1470    0.0000 N   0  0  0  0  0  0  0  0  0  0  0  0
   -0.5500   -5.1670    0.0000 N   0  0  0  0  0  0  0  0  0  0  0  0
   -1.1389   -5.9752    0.0000 S   0  0  0  0  0  0  0  0  0  0  0  0
   -0.3306   -6.5641    0.0000 O   0  0  0  0  0  0  0  0  0  0  0  0
   -1.9471   -5.3863    0.0000 O   0  0  0  0  0  0  0  0  0  0  0  0
   -1.7277   -6.7834    0.0000 N   0  0  0  0  0  0  0  0  0  0  0  0
   -0.3065    0.9519    0.0000 C   0  0  0  0  0  0  0  0  0  0  0  0
    0.5007    1.5426    0.0000 S   0  0  0  0  0  0  0  0  0  0  0  0
  1  2  1  0  0  0  0
  2  3  2  3  0  0  0
  2  4  1  0  0  0  0
  4  5  1  0  0  0  0
  5 20  1  0  0  0  0
  5  6  2  0  0  0  0
  6  7  1  0  0  0  0
  7  8  1  0  0  0  0
  8  9  1  0  0  0  0
  9 10  1  0  0  0  0
 10 11  1  0  0  0  0
 11 12  1  0  0  0  0
 12 13  2  3  0  0  0
 12 14  1  0  0  0  0
 14 15  1  0  0  0  0
 15 16  2  0  0  0  0
 15 17  2  0  0  0  0
 15 18  1  0  0  0  0
  7 19  2  0  0  0  0
 19 20  1  0  0  0  0
M  END
>  <Name>
Famotidine

>  <CAS #>
76824-35-6

>  <human Clearance (mL/min/kg)>
6.6

>  <Primary mechanism (metabolic, biliary or renal)>
renal

>  <seqId>
364.0

>  <Code (mechanism and clearance degree index)>
R1

>  < Five M1 and R1 test groups>
R1_4

>  <formamide>
0

>  <prodrug phosphates>
0

>  <VolSurf_V>
658.125

>  <VolSurf_S>
492.836

>  <VolSurf_R>
1.33538

>  <VolSurf_G>
1.56321

>  <VolSurf_IW1>
0.0521623

>  <VolSurf_IW2>
0.13324

>  <VolSurf_IW3>
0.322487

>  <VolSurf_IW4>
0.784444

>  <VolSurf_ID1>
0.10782

>  <VolSurf_ID2>
0.203894

>  <VolSurf_ID3>
0.287584

>  <VolSurf_ID4>
0.356546

>  <VolSurf_HL1>
2.77647

>  <VolSurf_HL2>
1.37089

>  <VolSurf_A>
5.47201

>  <VolSurf_CP>
0.353183

>  <VolSurf_POL>
32.992

>  <VolSurf_MW>
337.445

>  <VolSurf_FLEX>
2.95235

>  <VolSurf_FLEX_RB>
0.268395

>  <VolSurf_NCC>
0.0

>  <VolSurf_LOGP n-Oct>
-1.264

>  <VolSurf_LOGP c-Hex>
-2.775

>  <VolSurf_PSA>
202.133

>  <VolSurf_HSA>
290.703

>  <VolSurf_PSAR>
0.410142

>  <VolSurf_PHSAR>
0.695323

>  <VolSurf_LgD5>
-4.42657

>  <VolSurf_LgD6>
-2.63531

>  <VolSurf_LgD7>
-1.56171

>  <VolSurf_LgD7.5>
-1.37153

>  <VolSurf_LgD8>
-1.29978

>  <VolSurf_LgD9>
-1.26809

>  <VolSurf_LgD10>
-1.26868

>  <VolSurf_AUS7.4>
1.87108

>  <VolSurf_%FU4>
6.7615E-4

>  <VolSurf_%FU5>
0.0664719

>  <VolSurf_%FU6>
4.24126

>  <VolSurf_%FU7>
50.3706

>  <VolSurf_%FU8>
92.0889

>  <VolSurf_%FU9>
99.0635

>  <VolSurf_%FU10>
98.9272

>  <ID>
176

>  <MOKAID>
177

>  <Clearance Route>
renal

>  <PC1>
-2.00902

>  <PC2>
1.5754700000000001

$$$$
Felodipine
  -OEChem-08301611272D

 25 26  0     1  0  0  0  0  0999 V2000
   -4.3316    0.4925    0.0000 C   0  0  0  0  0  0  0  0  0  0  0  0
   -3.4648   -0.0063    0.0000 C   0  0  0  0  0  0  0  0  0  0  0  0
   -2.5995    0.4950    0.0000 O   0  0  0  0  0  0  0  0  0  0  0  0
   -1.7328   -0.0038    0.0000 C   0  0  0  0  0  0  0  0  0  0  0  0
   -1.7313   -1.0038    0.0000 O   0  0  0  0  0  0  0  0  0  0  0  0
   -0.8675    0.4975    0.0000 C   0  0  0  0  0  0  0  0  0  0  0  0
   -0.8675    1.5027    0.0000 C   0  0  0  0  0  0  0  0  0  0  0  0
   -1.7350    2.0001    0.0000 C   0  0  0  0  0  0  0  0  0  0  0  0
    0.0000    2.0104    0.0000 N   0  0  0  0  0  0  0  0  0  0  0  0
    0.8675    1.5027    0.0000 C   0  0  0  0  0  0  0  0  0  0  0  0
    0.8675    0.4975    0.0000 C   0  0  0  0  0  0  0  0  0  0  0  0
    0.0000    0.0000    0.0000 C   0  0  3  0  0  0  0  0  0  0  0  0
   -0.0000   -1.7500    0.0000 C   0  0  0  0  0  0  0  0  0  0  0  0
   -0.8720   -2.2500    0.0000 C   0  0  0  0  0  0  0  0  0  0  0  0
   -0.8721   -3.2501    0.0000 C   0  0  0  0  0  0  0  0  0  0  0  0
   -0.0089   -3.7551    0.0000 C   0  0  0  0  0  0  0  0  0  0  0  0
    0.8631   -3.2551    0.0000 C   0  0  0  0  0  0  0  0  0  0  0  0
    1.7261   -3.7602    0.0000 Cl  0  0  0  0  0  0  0  0  0  0  0  0
    0.8720   -2.2500    0.0000 C   0  0  0  0  0  0  0  0  0  0  0  0
    1.7395   -1.7526    0.0000 Cl  0  0  0  0  0  0  0  0  0  0  0  0
    1.7328   -0.0038    0.0000 C   0  0  0  0  0  0  0  0  0  0  0  0
    1.7313   -1.0038    0.0000 O   0  0  0  0  0  0  0  0  0  0  0  0
    2.5995    0.4950    0.0000 O   0  0  0  0  0  0  0  0  0  0  0  0
    3.4648   -0.0063    0.0000 C   0  0  0  0  0  0  0  0  0  0  0  0
    1.7350    2.0001    0.0000 C   0  0  0  0  0  0  0  0  0  0  0  0
  1  2  1  0  0  0  0
  2  3  1  0  0  0  0
  3  4  1  0  0  0  0
  4  5  2  0  0  0  0
  4  6  1  0  0  0  0
  6 12  1  0  0  0  0
  6  7  2  0  0  0  0
  7  8  1  0  0  0  0
  7  9  1  0  0  0  0
  9 10  1  0  0  0  0
 10 11  2  0  0  0  0
 11 12  1  0  0  0  0
 12 13  1  0  0  0  0
 13 19  2  0  0  0  0
 13 14  1  0  0  0  0
 14 15  2  0  0  0  0
 15 16  1  0  0  0  0
 16 17  2  0  0  0  0
 17 18  1  0  0  0  0
 17 19  1  0  0  0  0
 19 20  1  0  0  0  0
 11 21  1  0  0  0  0
 21 22  2  0  0  0  0
 21 23  1  0  0  0  0
 23 24  1  0  0  0  0
 10 25  1  0  0  0  0
M  END
>  <Name>
Felodipine

>  <CAS #>
72509-76-3

>  <human Clearance (mL/min/kg)>
11.0

>  <Primary mechanism (metabolic, biliary or renal)>
metabolic

>  <seqId>
366.0

>  <Code (mechanism and clearance degree index)>
M1

>  < Five M1 and R1 test groups>
M1_5

>  <formamide>
0

>  <prodrug phosphates>
0

>  <VolSurf_V>
782.0

>  <VolSurf_S>
515.105

>  <VolSurf_R>
1.51814

>  <VolSurf_G>
1.40576

>  <VolSurf_IW1>
0.0345061

>  <VolSurf_IW2>
0.128089

>  <VolSurf_IW3>
0.296592

>  <VolSurf_IW4>
0.304654

>  <VolSurf_ID1>
0.043158

>  <VolSurf_ID2>
0.0475883

>  <VolSurf_ID3>
0.0475988

>  <VolSurf_ID4>
0.0675413

>  <VolSurf_HL1>
1.1662

>  <VolSurf_HL2>
0.863415

>  <VolSurf_A>
2.42947

>  <VolSurf_CP>
2.3024

>  <VolSurf_POL>
37.949

>  <VolSurf_MW>
384.253

>  <VolSurf_FLEX>
1.31833

>  <VolSurf_FLEX_RB>
0.131833

>  <VolSurf_NCC>
0.0

>  <VolSurf_LOGP n-Oct>
4.25

>  <VolSurf_LOGP c-Hex>
3.981

>  <VolSurf_PSA>
64.63

>  <VolSurf_HSA>
450.475

>  <VolSurf_PSAR>
0.12547

>  <VolSurf_PHSAR>
0.143471

>  <VolSurf_LgD5>
4.24966

>  <VolSurf_LgD6>
4.24997

>  <VolSurf_LgD7>
4.25

>  <VolSurf_LgD7.5>
4.25

>  <VolSurf_LgD8>
4.25

>  <VolSurf_LgD9>
4.25

>  <VolSurf_LgD10>
4.25

>  <VolSurf_AUS7.4>
2.0

>  <VolSurf_%FU4>
99.2279

>  <VolSurf_%FU5>
99.9222

>  <VolSurf_%FU6>
99.9922

>  <VolSurf_%FU7>
99.9992

>  <VolSurf_%FU8>
99.9999

>  <VolSurf_%FU9>
100.0

>  <VolSurf_%FU10>
100.0

>  <ID>
177

>  <MOKAID>
178

>  <Clearance Route>
metabolic

>  <PC1>
5.24711

>  <PC2>
-1.2818399999999999

$$$$
Fenoldopam
  -OEChem-08301611272D

 21 23  0     1  0  0  0  0  0999 V2000
    2.2192   -0.5026    0.0000 C   0  0  0  0  0  0  0  0  0  0  0  0
    1.4241   -1.1362    0.0000 C   0  0  1  0  0  0  0  0  0  0  0  0
    1.6481   -2.1108    0.0000 C   0  0  0  0  0  0  0  0  0  0  0  0
    2.6100   -2.4027    0.0000 C   0  0  0  0  0  0  0  0  0  0  0  0
    2.8341   -3.3773    0.0000 C   0  0  0  0  0  0  0  0  0  0  0  0
    2.1061   -4.0629    0.0000 C   0  0  0  0  0  0  0  0  0  0  0  0
    2.3344   -5.0365    0.0000 O   0  0  0  0  0  0  0  0  0  0  0  0
    1.1442   -3.7710    0.0000 C   0  0  0  0  0  0  0  0  0  0  0  0
    0.9104   -2.7934    0.0000 C   0  0  0  0  0  0  0  0  0  0  0  0
    0.4360   -0.9143    0.0000 C   0  0  0  0  0  0  0  0  0  0  0  0
    0.0000    0.0000    0.0000 N   0  0  0  0  0  0  0  0  0  0  0  0
    0.4384    0.9159    0.0000 C   0  0  0  0  0  0  0  0  0  0  0  0
    1.4290    1.1418    0.0000 C   0  0  0  0  0  0  0  0  0  0  0  0
    2.2220    0.5029    0.0000 C   0  0  0  0  0  0  0  0  0  0  0  0
    3.0895    1.0060    0.0000 C   0  0  0  0  0  0  0  0  0  0  0  0
    3.9596    0.4979    0.0000 C   0  0  0  0  0  0  0  0  0  0  0  0
    4.8276    0.9945    0.0000 O   0  0  0  0  0  0  0  0  0  0  0  0
    3.9567   -0.5076    0.0000 C   0  0  0  0  0  0  0  0  0  0  0  0
    3.0837   -1.0052    0.0000 C   0  0  0  0  0  0  0  0  0  0  0  0
    4.8206   -1.0112    0.0000 O   0  0  0  0  0  0  0  0  0  0  0  0
    3.0910    2.0060    0.0000 Cl  0  0  0  0  0  0  0  0  0  0  0  0
  1 14  2  0  0  0  0
  1 19  1  0  0  0  0
  1  2  1  0  0  0  0
  2  3  1  1  0  0  0
  3  9  2  0  0  0  0
  3  4  1  0  0  0  0
  4  5  2  0  0  0  0
  5  6  1  0  0  0  0
  6  7  1  0  0  0  0
  6  8  2  0  0  0  0
  8  9  1  0  0  0  0
  2 10  1  0  0  0  0
 10 11  1  0  0  0  0
 11 12  1  0  0  0  0
 12 13  1  0  0  0  0
 13 14  1  0  0  0  0
 14 15  1  0  0  0  0
 15 16  2  0  0  0  0
 16 17  1  0  0  0  0
 16 18  1  0  0  0  0
 18 19  2  0  0  0  0
 18 20  1  0  0  0  0
 15 21  1  0  0  0  0
M  END
>  <Name>
Fenoldopam

>  <CAS #>
67227-56-9

>  <human Clearance (mL/min/kg)>
41.5

>  <Primary mechanism (metabolic, biliary or renal)>
metabolic

>  <seqId>
368.0

>  <Code (mechanism and clearance degree index)>
M1

>  < Five M1 and R1 test groups>
M1_5

>  <formamide>
0

>  <prodrug phosphates>
0

>  <VolSurf_V>
635.875

>  <VolSurf_S>
440.557

>  <VolSurf_R>
1.44334

>  <VolSurf_G>
1.36743

>  <VolSurf_IW1>
0.0478809

>  <VolSurf_IW2>
0.14785

>  <VolSurf_IW3>
0.357078

>  <VolSurf_IW4>
0.919133

>  <VolSurf_ID1>
0.0344745

>  <VolSurf_ID2>
0.058957

>  <VolSurf_ID3>
0.119216

>  <VolSurf_ID4>
0.197932

>  <VolSurf_HL1>
1.38682

>  <VolSurf_HL2>
0.989474

>  <VolSurf_A>
2.6154

>  <VolSurf_CP>
1.97944

>  <VolSurf_POL>
34.773

>  <VolSurf_MW>
306.764

>  <VolSurf_FLEX>
0.322778

>  <VolSurf_FLEX_RB>
0.0806945

>  <VolSurf_NCC>
1.0

>  <VolSurf_LOGP n-Oct>
2.677

>  <VolSurf_LOGP c-Hex>
-3.205

>  <VolSurf_PSA>
84.27

>  <VolSurf_HSA>
356.287

>  <VolSurf_PSAR>
0.19128

>  <VolSurf_PHSAR>
0.236523

>  <VolSurf_LgD5>
-0.189761

>  <VolSurf_LgD6>
0.673736

>  <VolSurf_LgD7>
1.62178

>  <VolSurf_LgD7.5>
2.04201

>  <VolSurf_LgD8>
2.34497

>  <VolSurf_LgD9>
2.32794

>  <VolSurf_LgD10>
1.48841

>  <VolSurf_AUS7.4>
1.30237

>  <VolSurf_%FU4>
0.00962168

>  <VolSurf_%FU5>
0.0961335

>  <VolSurf_%FU6>
0.953079

>  <VolSurf_%FU7>
8.76947

>  <VolSurf_%FU8>
46.5218

>  <VolSurf_%FU9>
44.6299

>  <VolSurf_%FU10>
6.28948

>  <ID>
178

>  <MOKAID>
179

>  <Clearance Route>
metabolic

>  <PC1>
1.2167

>  <PC2>
0.419195

$$$$
Fenoprofen
  -OEChem-08301611272D

 18 19  0     1  0  0  0  0  0999 V2000
    3.4670   -0.0051    0.0000 C   0  0  0  0  0  0  0  0  0  0  0  0
    2.6025    0.4974    0.0000 C   0  0  1  0  0  0  0  0  0  0  0  0
    1.7350   -0.0000    0.0000 C   0  0  0  0  0  0  0  0  0  0  0  0
    0.8675    0.5077    0.0000 C   0  0  0  0  0  0  0  0  0  0  0  0
    0.0000    0.0000    0.0000 C   0  0  0  0  0  0  0  0  0  0  0  0
   -0.8675    0.4974    0.0000 O   0  0  0  0  0  0  0  0  0  0  0  0
   -1.7320   -0.0051    0.0000 C   0  0  0  0  0  0  0  0  0  0  0  0
   -1.7261   -1.0103    0.0000 C   0  0  0  0  0  0  0  0  0  0  0  0
   -2.5907   -1.5129    0.0000 C   0  0  0  0  0  0  0  0  0  0  0  0
   -3.4611   -1.0205    0.0000 C   0  0  0  0  0  0  0  0  0  0  0  0
   -3.4670   -0.0153    0.0000 C   0  0  0  0  0  0  0  0  0  0  0  0
   -2.6025    0.4975    0.0000 C   0  0  0  0  0  0  0  0  0  0  0  0
   -0.0000   -1.0052    0.0000 C   0  0  0  0  0  0  0  0  0  0  0  0
    0.8675   -1.5027    0.0000 C   0  0  0  0  0  0  0  0  0  0  0  0
    1.7350   -1.0052    0.0000 C   0  0  0  0  0  0  0  0  0  0  0  0
    2.6054    1.4974    0.0000 C   0  0  0  0  0  0  0  0  0  0  0  0
    3.4641   -1.0051    0.0000 O   0  0  0  0  0  0  0  0  0  0  0  0
    4.3345    0.4923    0.0000 O   0  0  0  0  0  0  0  0  0  0  0  0
  1  2  1  0  0  0  0
  2  3  1  0  0  0  0
  3 15  2  0  0  0  0
  3  4  1  0  0  0  0
  4  5  2  0  0  0  0
  5  6  1  0  0  0  0
  6  7  1  0  0  0  0
  7 12  2  0  0  0  0
  7  8  1  0  0  0  0
  8  9  2  0  0  0  0
  9 10  1  0  0  0  0
 10 11  2  0  0  0  0
 11 12  1  0  0  0  0
  5 13  1  0  0  0  0
 13 14  2  0  0  0  0
 14 15  1  0  0  0  0
  2 16  1  1  0  0  0
  1 17  2  0  0  0  0
  1 18  1  0  0  0  0
M  END
>  <Name>
Fenoprofen

>  <CAS #>
29679-58-1

>  <human Clearance (mL/min/kg)>
0.6

>  <Primary mechanism (metabolic, biliary or renal)>
metabolic

>  <seqId>
369.0

>  <Code (mechanism and clearance degree index)>
M1

>  < Five M1 and R1 test groups>
M1_4

>  <formamide>
0

>  <prodrug phosphates>
0

>  <VolSurf_V>
585.375

>  <VolSurf_S>
410.409

>  <VolSurf_R>
1.42632

>  <VolSurf_G>
1.33557

>  <VolSurf_IW1>
0.170728

>  <VolSurf_IW2>
0.523705

>  <VolSurf_IW3>
1.14621

>  <VolSurf_IW4>
1.80734

>  <VolSurf_ID1>
0.0904546

>  <VolSurf_ID2>
0.163974

>  <VolSurf_ID3>
0.252517

>  <VolSurf_ID4>
0.332891

>  <VolSurf_HL1>
3.05372

>  <VolSurf_HL2>
3.40741

>  <VolSurf_A>
7.72012

>  <VolSurf_CP>
0.41082

>  <VolSurf_POL>
26.352

>  <VolSurf_MW>
241.262

>  <VolSurf_FLEX>
1.27306

>  <VolSurf_FLEX_RB>
0.254613

>  <VolSurf_NCC>
1.0

>  <VolSurf_LOGP n-Oct>
3.248

>  <VolSurf_LOGP c-Hex>
1.647

>  <VolSurf_PSA>
56.45

>  <VolSurf_HSA>
353.959

>  <VolSurf_PSAR>
0.137546

>  <VolSurf_PHSAR>
0.159482

>  <VolSurf_LgD5>
2.62283

>  <VolSurf_LgD6>
1.73251

>  <VolSurf_LgD7>
0.797108

>  <VolSurf_LgD7.5>
0.403349

>  <VolSurf_LgD8>
0.129203

>  <VolSurf_LgD9>
-0.0691226

>  <VolSurf_LgD10>
-0.0950244

>  <VolSurf_AUS7.4>
0.0

>  <VolSurf_%FU4>
75.6158

>  <VolSurf_%FU5>
23.67

>  <VolSurf_%FU6>
3.00775

>  <VolSurf_%FU7>
0.309143

>  <VolSurf_%FU8>
0.0310006

>  <VolSurf_%FU9>
0.00310092

>  <VolSurf_%FU10>
3.10101E-4

>  <ID>
179

>  <MOKAID>
180

>  <Clearance Route>
metabolic

>  <PC1>
1.6303

>  <PC2>
2.9598299999999997

$$$$
Fenoterol
  -OEChem-08301611272D

 22 23  0     1  0  0  0  0  0999 V2000
    2.5966    0.4976    0.0000 C   0  0  0  0  0  0  0  0  0  0  0  0
    2.5995    1.4976    0.0000 C   0  0  3  0  0  0  0  0  0  0  0  0
    1.7350    2.0001    0.0000 C   0  0  0  0  0  0  0  0  0  0  0  0
    0.8675    1.5027    0.0000 C   0  0  0  0  0  0  0  0  0  0  0  0
    0.8675    0.4975    0.0000 C   0  0  0  0  0  0  0  0  0  0  0  0
    0.0000    0.0000    0.0000 C   0  0  0  0  0  0  0  0  0  0  0  0
   -0.8675    0.4975    0.0000 C   0  0  0  0  0  0  0  0  0  0  0  0
   -1.7328   -0.0038    0.0000 O   0  0  0  0  0  0  0  0  0  0  0  0
   -0.8675    1.5027    0.0000 C   0  0  0  0  0  0  0  0  0  0  0  0
    0.0000    2.0104    0.0000 C   0  0  0  0  0  0  0  0  0  0  0  0
    3.4670    1.9950    0.0000 N   0  0  0  0  0  0  0  0  0  0  0  0
    4.3316    1.4925    0.0000 C   0  0  0  0  0  0  0  0  0  0  0  0
    5.1991    1.9899    0.0000 C   0  0  3  0  0  0  0  0  0  0  0  0
    5.2020    2.9899    0.0000 O   0  0  0  0  0  0  0  0  0  0  0  0
    6.0636    1.4874    0.0000 C   0  0  0  0  0  0  0  0  0  0  0  0
    6.0577    0.4822    0.0000 C   0  0  0  0  0  0  0  0  0  0  0  0
    6.9222   -0.0204    0.0000 C   0  0  0  0  0  0  0  0  0  0  0  0
    6.9163   -1.0204    0.0000 O   0  0  0  0  0  0  0  0  0  0  0  0
    7.7927    0.4719    0.0000 C   0  0  0  0  0  0  0  0  0  0  0  0
    7.7986    1.4771    0.0000 C   0  0  0  0  0  0  0  0  0  0  0  0
    8.6690    1.9694    0.0000 O   0  0  0  0  0  0  0  0  0  0  0  0
    6.9341    1.9899    0.0000 C   0  0  0  0  0  0  0  0  0  0  0  0
  1  2  1  0  0  0  0
  2  3  1  0  0  0  0
  3  4  1  0  0  0  0
  4 10  2  0  0  0  0
  4  5  1  0  0  0  0
  5  6  2  0  0  0  0
  6  7  1  0  0  0  0
  7  8  1  0  0  0  0
  7  9  2  0  0  0  0
  9 10  1  0  0  0  0
  2 11  1  0  0  0  0
 11 12  1  0  0  0  0
 12 13  1  0  0  0  0
 13 14  1  0  0  0  0
 13 15  1  0  0  0  0
 15 22  2  0  0  0  0
 15 16  1  0  0  0  0
 16 17  2  0  0  0  0
 17 18  1  0  0  0  0
 17 19  1  0  0  0  0
 19 20  2  0  0  0  0
 20 21  1  0  0  0  0
 20 22  1  0  0  0  0
M  END
>  <Name>
Fenoterol

>  <CAS #>
13392-18-2

>  <human Clearance (mL/min/kg)>
29.0

>  <Primary mechanism (metabolic, biliary or renal)>
metabolic

>  <seqId>
370.0

>  <Code (mechanism and clearance degree index)>
M1

>  < Five M1 and R1 test groups>
M1_5

>  <formamide>
0

>  <prodrug phosphates>
0

>  <VolSurf_V>
695.625

>  <VolSurf_S>
487.211

>  <VolSurf_R>
1.42777

>  <VolSurf_G>
1.4537

>  <VolSurf_IW1>
0.045467

>  <VolSurf_IW2>
0.150957

>  <VolSurf_IW3>
0.365393

>  <VolSurf_IW4>
0.723953

>  <VolSurf_ID1>
0.0565489

>  <VolSurf_ID2>
0.0865398

>  <VolSurf_ID3>
0.118952

>  <VolSurf_ID4>
0.217607

>  <VolSurf_HL1>
2.61859

>  <VolSurf_HL2>
2.26347

>  <VolSurf_A>
3.72384

>  <VolSurf_CP>
0.750962

>  <VolSurf_POL>
36.091

>  <VolSurf_MW>
304.361

>  <VolSurf_FLEX>
2.86481

>  <VolSurf_FLEX_RB>
0.260437

>  <VolSurf_NCC>
1.0

>  <VolSurf_LOGP n-Oct>
1.524

>  <VolSurf_LOGP c-Hex>
-5.684

>  <VolSurf_PSA>
104.5

>  <VolSurf_HSA>
382.711

>  <VolSurf_PSAR>
0.214486

>  <VolSurf_PHSAR>
0.273052

>  <VolSurf_LgD5>
-1.4197

>  <VolSurf_LgD6>
-0.566372

>  <VolSurf_LgD7>
0.386842

>  <VolSurf_LgD7.5>
0.821568

>  <VolSurf_LgD8>
1.16201

>  <VolSurf_LgD9>
1.38363

>  <VolSurf_LgD10>
0.944518

>  <VolSurf_AUS7.4>
1.2334

>  <VolSurf_%FU4>
0.00782787

>  <VolSurf_%FU5>
0.0782236

>  <VolSurf_%FU6>
0.776766

>  <VolSurf_%FU7>
7.2588

>  <VolSurf_%FU8>
43.4283

>  <VolSurf_%FU9>
72.3089

>  <VolSurf_%FU10>
26.0841

>  <ID>
180

>  <MOKAID>
181

>  <Clearance Route>
uncertain

>  <PC1>
0.162113

>  <PC2>
0.0670354

$$$$
Fenoximone
  -OEChem-08301611272D

 17 18  0     0  0  0  0  0  0999 V2000
   -4.9725    0.5358    0.0000 C   0  0  0  0  0  0  0  0  0  0  0  0
   -4.5711   -0.3800    0.0000 S   0  0  0  0  0  0  0  0  0  0  0  0
   -3.5771   -0.4903    0.0000 C   0  0  0  0  0  0  0  0  0  0  0  0
   -2.9840    0.3213    0.0000 C   0  0  0  0  0  0  0  0  0  0  0  0
   -1.9901    0.2111    0.0000 C   0  0  0  0  0  0  0  0  0  0  0  0
   -1.5832   -0.7024    0.0000 C   0  0  0  0  0  0  0  0  0  0  0  0
   -2.1763   -1.5140    0.0000 C   0  0  0  0  0  0  0  0  0  0  0  0
   -3.1763   -1.4120    0.0000 C   0  0  0  0  0  0  0  0  0  0  0  0
   -0.5889   -0.8082    0.0000 C   0  0  0  0  0  0  0  0  0  0  0  0
   -0.1833   -1.7223    0.0000 O   0  0  0  0  0  0  0  0  0  0  0  0
    0.0000    0.0000    0.0000 C   0  0  0  0  0  0  0  0  0  0  0  0
   -0.3065    0.9519    0.0000 C   0  0  0  0  0  0  0  0  0  0  0  0
   -1.2577    1.2606    0.0000 C   0  0  0  0  0  0  0  0  0  0  0  0
    0.5007    1.5426    0.0000 N   0  0  0  0  0  0  0  0  0  0  0  0
    1.3131    0.9519    0.0000 C   0  0  0  0  0  0  0  0  0  0  0  0
    2.2646    1.2597    0.0000 O   0  0  0  0  0  0  0  0  0  0  0  0
    1.0014    0.0000    0.0000 N   0  0  0  0  0  0  0  0  0  0  0  0
  1  2  1  0  0  0  0
  2  3  1  0  0  0  0
  3  8  2  0  0  0  0
  3  4  1  0  0  0  0
  4  5  2  0  0  0  0
  5  6  1  0  0  0  0
  6  7  2  0  0  0  0
  7  8  1  0  0  0  0
  6  9  1  0  0  0  0
  9 10  2  0  0  0  0
  9 11  1  0  0  0  0
 11 17  1  0  0  0  0
 11 12  2  0  0  0  0
 12 13  1  0  0  0  0
 12 14  1  0  0  0  0
 14 15  1  0  0  0  0
 15 16  2  0  0  0  0
 15 17  1  0  0  0  0
M  END
>  <Name>
Fenoximone

>  <CAS #>
77671-31-9

>  <human Clearance (mL/min/kg)>
29.0

>  <Primary mechanism (metabolic, biliary or renal)>
metabolic

>  <seqId>
371.0

>  <Code (mechanism and clearance degree index)>
M1

>  < Five M1 and R1 test groups>
M1_1

>  <formamide>
0

>  <prodrug phosphates>
0

>  <VolSurf_V>
543.375

>  <VolSurf_S>
383.964

>  <VolSurf_R>
1.41517

>  <VolSurf_G>
1.30199

>  <VolSurf_IW1>
0.192885

>  <VolSurf_IW2>
0.497481

>  <VolSurf_IW3>
1.36788

>  <VolSurf_IW4>
1.82569

>  <VolSurf_ID1>
0.0291668

>  <VolSurf_ID2>
0.0381996

>  <VolSurf_ID3>
0.0630272

>  <VolSurf_ID4>
0.0892491

>  <VolSurf_HL1>
1.62585

>  <VolSurf_HL2>
1.35664

>  <VolSurf_A>
4.82687

>  <VolSurf_CP>
3.86455

>  <VolSurf_POL>
25.722

>  <VolSurf_MW>
248.301

>  <VolSurf_FLEX>
0.786245

>  <VolSurf_FLEX_RB>
0.157249

>  <VolSurf_NCC>
0.0

>  <VolSurf_LOGP n-Oct>
1.597

>  <VolSurf_LOGP c-Hex>
1.282

>  <VolSurf_PSA>
69.97

>  <VolSurf_HSA>
313.994

>  <VolSurf_PSAR>
0.182231

>  <VolSurf_PHSAR>
0.222839

>  <VolSurf_LgD5>
1.597

>  <VolSurf_LgD6>
1.59697

>  <VolSurf_LgD7>
1.59674

>  <VolSurf_LgD7.5>
1.59618

>  <VolSurf_LgD8>
1.59442

>  <VolSurf_LgD9>
1.5719

>  <VolSurf_LgD10>
1.39427

>  <VolSurf_AUS7.4>
2.0

>  <VolSurf_%FU4>
99.9999

>  <VolSurf_%FU5>
99.9994

>  <VolSurf_%FU6>
99.994

>  <VolSurf_%FU7>
99.9405

>  <VolSurf_%FU8>
99.4083

>  <VolSurf_%FU9>
94.3823

>  <VolSurf_%FU10>
62.6879

>  <ID>
181

>  <MOKAID>
182

>  <Clearance Route>
metabolic

>  <PC1>
4.13486

>  <PC2>
3.19981

$$$$
Fentanyl
  -OEChem-08301611272D

 25 27  0     0  0  0  0  0  0999 V2000
   -1.7321   -3.0000    0.0000 C   0  0  0  0  0  0  0  0  0  0  0  0
   -0.8660   -2.5000    0.0000 C   0  0  0  0  0  0  0  0  0  0  0  0
   -0.8660   -1.5000    0.0000 C   0  0  0  0  0  0  0  0  0  0  0  0
   -1.7321   -1.0000    0.0000 O   0  0  0  0  0  0  0  0  0  0  0  0
   -0.0000   -1.0000    0.0000 N   0  0  0  0  0  0  0  0  0  0  0  0
    0.0000    0.0000    0.0000 C   0  0  0  0  0  0  0  0  0  0  0  0
   -0.8675    0.4975    0.0000 C   0  0  0  0  0  0  0  0  0  0  0  0
   -0.8675    1.5027    0.0000 C   0  0  0  0  0  0  0  0  0  0  0  0
    0.0000    2.0104    0.0000 N   0  0  0  0  0  0  0  0  0  0  0  0
    0.0000    3.0104    0.0000 C   0  0  0  0  0  0  0  0  0  0  0  0
   -0.8660    3.5104    0.0000 C   0  0  0  0  0  0  0  0  0  0  0  0
   -0.8660    4.5104    0.0000 C   0  0  0  0  0  0  0  0  0  0  0  0
   -1.7380    5.0104    0.0000 C   0  0  0  0  0  0  0  0  0  0  0  0
   -1.7381    6.0105    0.0000 C   0  0  0  0  0  0  0  0  0  0  0  0
   -0.8750    6.5155    0.0000 C   0  0  0  0  0  0  0  0  0  0  0  0
   -0.0030    6.0155    0.0000 C   0  0  0  0  0  0  0  0  0  0  0  0
    0.0059    5.0104    0.0000 C   0  0  0  0  0  0  0  0  0  0  0  0
    0.8675    1.5027    0.0000 C   0  0  0  0  0  0  0  0  0  0  0  0
    0.8675    0.4975    0.0000 C   0  0  0  0  0  0  0  0  0  0  0  0
    0.8660   -1.5000    0.0000 C   0  0  0  0  0  0  0  0  0  0  0  0
    1.7351   -0.9948    0.0000 C   0  0  0  0  0  0  0  0  0  0  0  0
    2.6011   -1.4948    0.0000 C   0  0  0  0  0  0  0  0  0  0  0  0
    2.6070   -2.4948    0.0000 C   0  0  0  0  0  0  0  0  0  0  0  0
    1.7380   -3.0000    0.0000 C   0  0  0  0  0  0  0  0  0  0  0  0
    0.8631   -2.5051    0.0000 C   0  0  0  0  0  0  0  0  0  0  0  0
  1  2  1  0  0  0  0
  2  3  1  0  0  0  0
  3  4  2  0  0  0  0
  3  5  1  0  0  0  0
  5  6  1  0  0  0  0
  6 19  1  0  0  0  0
  6  7  1  0  0  0  0
  7  8  1  0  0  0  0
  8  9  1  0  0  0  0
  9 10  1  0  0  0  0
 10 11  1  0  0  0  0
 11 12  1  0  0  0  0
 12 17  2  0  0  0  0
 12 13  1  0  0  0  0
 13 14  2  0  0  0  0
 14 15  1  0  0  0  0
 15 16  2  0  0  0  0
 16 17  1  0  0  0  0
  9 18  1  0  0  0  0
 18 19  1  0  0  0  0
  5 20  1  0  0  0  0
 20 25  2  0  0  0  0
 20 21  1  0  0  0  0
 21 22  2  0  0  0  0
 22 23  1  0  0  0  0
 23 24  2  0  0  0  0
 24 25  1  0  0  0  0
M  END
>  <Name>
Fentanyl

>  <CAS #>
437-38-7

>  <human Clearance (mL/min/kg)>
4.7

>  <Primary mechanism (metabolic, biliary or renal)>
metabolic

>  <seqId>
373.0

>  <Code (mechanism and clearance degree index)>
M1

>  < Five M1 and R1 test groups>
M1_3

>  <formamide>
0

>  <prodrug phosphates>
0

>  <VolSurf_V>
852.875

>  <VolSurf_S>
580.841

>  <VolSurf_R>
1.46834

>  <VolSurf_G>
1.54339

>  <VolSurf_IW1>
0.038333

>  <VolSurf_IW2>
0.283024

>  <VolSurf_IW3>
0.664825

>  <VolSurf_IW4>
0.981861

>  <VolSurf_ID1>
0.0192839

>  <VolSurf_ID2>
0.0326104

>  <VolSurf_ID3>
0.0279476

>  <VolSurf_ID4>
0.0461712

>  <VolSurf_HL1>
0.651357

>  <VolSurf_HL2>
0.647303

>  <VolSurf_A>
4.91744

>  <VolSurf_CP>
4.89259

>  <VolSurf_POL>
42.216

>  <VolSurf_MW>
337.478

>  <VolSurf_FLEX>
2.23918

>  <VolSurf_FLEX_RB>
0.279897

>  <VolSurf_NCC>
1.0

>  <VolSurf_LOGP n-Oct>
4.119

>  <VolSurf_LOGP c-Hex>
3.633

>  <VolSurf_PSA>
31.49

>  <VolSurf_HSA>
549.351

>  <VolSurf_PSAR>
0.0542145

>  <VolSurf_PHSAR>
0.0573222

>  <VolSurf_LgD5>
0.866554

>  <VolSurf_LgD6>
1.5061

>  <VolSurf_LgD7>
2.43808

>  <VolSurf_LgD7.5>
2.91433

>  <VolSurf_LgD8>
3.35805

>  <VolSurf_LgD9>
3.9495

>  <VolSurf_LgD10>
4.09874

>  <VolSurf_AUS7.4>
0.755571

>  <VolSurf_%FU4>
0.0020935

>  <VolSurf_%FU5>
0.020931

>  <VolSurf_%FU6>
0.208917

>  <VolSurf_%FU7>
2.05061

>  <VolSurf_%FU8>
17.3112

>  <VolSurf_%FU9>
67.6746

>  <VolSurf_%FU10>
95.4412

>  <ID>
182

>  <MOKAID>
183

>  <Clearance Route>
metabolic

>  <PC1>
3.52598

>  <PC2>
-1.3093299999999999

$$$$
Fingolimod
  -OEChem-08301611272D

 22 22  0     0  0  0  0  0  0999 V2000
    0.8675    1.5027    0.0000 C   0  0  0  0  0  0  0  0  0  0  0  0
    0.8675    0.4975    0.0000 C   0  0  0  0  0  0  0  0  0  0  0  0
    0.0000    0.0000    0.0000 C   0  0  0  0  0  0  0  0  0  0  0  0
   -0.8675    0.4975    0.0000 C   0  0  0  0  0  0  0  0  0  0  0  0
   -0.8675    1.5027    0.0000 C   0  0  0  0  0  0  0  0  0  0  0  0
    0.0000    2.0104    0.0000 C   0  0  0  0  0  0  0  0  0  0  0  0
   -1.7328   -0.0038    0.0000 C   0  0  0  0  0  0  0  0  0  0  0  0
   -1.7313   -1.0038    0.0000 C   0  0  0  0  0  0  0  0  0  0  0  0
   -2.5966   -1.5050    0.0000 C   0  0  0  0  0  0  0  0  0  0  0  0
   -2.5952   -2.5050    0.0000 C   0  0  0  0  0  0  0  0  0  0  0  0
   -3.4605   -3.0063    0.0000 C   0  0  0  0  0  0  0  0  0  0  0  0
   -3.4590   -4.0063    0.0000 C   0  0  0  0  0  0  0  0  0  0  0  0
   -4.3243   -4.5075    0.0000 C   0  0  0  0  0  0  0  0  0  0  0  0
   -4.3229   -5.5075    0.0000 C   0  0  0  0  0  0  0  0  0  0  0  0
    1.7350    2.0001    0.0000 C   0  0  0  0  0  0  0  0  0  0  0  0
    1.7379    3.0001    0.0000 C   0  0  0  0  0  0  0  0  0  0  0  0
    2.6054    3.4976    0.0000 C   0  0  0  0  0  0  0  0  0  0  0  0
    2.1080    4.3651    0.0000 C   0  0  0  0  0  0  0  0  0  0  0  0
    1.1080    4.3680    0.0000 O   0  0  0  0  0  0  0  0  0  0  0  0
    3.1029    2.6301    0.0000 N   0  0  0  0  0  0  0  0  0  0  0  0
    3.4729    3.9950    0.0000 C   0  0  0  0  0  0  0  0  0  0  0  0
    3.4759    4.9950    0.0000 O   0  0  0  0  0  0  0  0  0  0  0  0
  1  6  2  0  0  0  0
  1  2  1  0  0  0  0
  2  3  2  0  0  0  0
  3  4  1  0  0  0  0
  4  5  2  0  0  0  0
  5  6  1  0  0  0  0
  4  7  1  0  0  0  0
  7  8  1  0  0  0  0
  8  9  1  0  0  0  0
  9 10  1  0  0  0  0
 10 11  1  0  0  0  0
 11 12  1  0  0  0  0
 12 13  1  0  0  0  0
 13 14  1  0  0  0  0
  1 15  1  0  0  0  0
 15 16  1  0  0  0  0
 16 17  1  0  0  0  0
 17 18  1  0  0  0  0
 18 19  1  0  0  0  0
 17 20  1  0  0  0  0
 17 21  1  0  0  0  0
 21 22  1  0  0  0  0
M  END
>  <Name>
Fingolimod

>  <CAS #>
162359-55-9

>  <human Clearance (mL/min/kg)>
1.53

>  <Primary mechanism (metabolic, biliary or renal)>
metabolic

>  <seqId>
375.0

>  <Code (mechanism and clearance degree index)>
M1

>  < Five M1 and R1 test groups>
M1_2

>  <formamide>
0

>  <prodrug phosphates>
0

>  <VolSurf_V>
831.875

>  <VolSurf_S>
579.893

>  <VolSurf_R>
1.43453

>  <VolSurf_G>
1.57847

>  <VolSurf_IW1>
0.18922

>  <VolSurf_IW2>
0.67423

>  <VolSurf_IW3>
1.22607

>  <VolSurf_IW4>
1.67908

>  <VolSurf_ID1>
0.0670318

>  <VolSurf_ID2>
0.0846132

>  <VolSurf_ID3>
0.075062

>  <VolSurf_ID4>
0.0967214

>  <VolSurf_HL1>
1.75214

>  <VolSurf_HL2>
2.05581

>  <VolSurf_A>
9.48562

>  <VolSurf_CP>
0.927407

>  <VolSurf_POL>
38.837

>  <VolSurf_MW>
308.479

>  <VolSurf_FLEX>
2.72758

>  <VolSurf_FLEX_RB>
0.170474

>  <VolSurf_NCC>
1.0

>  <VolSurf_LOGP n-Oct>
3.681

>  <VolSurf_LOGP c-Hex>
0.0220003

>  <VolSurf_PSA>
75.07

>  <VolSurf_HSA>
504.823

>  <VolSurf_PSAR>
0.129455

>  <VolSurf_PHSAR>
0.148706

>  <VolSurf_LgD5>
0.493642

>  <VolSurf_LgD6>
1.24209

>  <VolSurf_LgD7>
2.19405

>  <VolSurf_LgD7.5>
2.66195

>  <VolSurf_LgD8>
3.07959

>  <VolSurf_LgD9>
3.56712

>  <VolSurf_LgD10>
3.66752

>  <VolSurf_AUS7.4>
0.925899

>  <VolSurf_%FU4>
0.00333572

>  <VolSurf_%FU5>
0.0333472

>  <VolSurf_%FU6>
0.332474

>  <VolSurf_%FU7>
3.22814

>  <VolSurf_%FU8>
25.0139

>  <VolSurf_%FU9>
76.9272

>  <VolSurf_%FU10>
96.9435

>  <ID>
183

>  <MOKAID>
184

>  <Clearance Route>
metabolic

>  <PC1>
2.86023

>  <PC2>
0.772235

$$$$
Fluconazole
  -OEChem-08301611272D

 22 24  0     0  0  0  0  0  0999 V2000
   -0.1384    5.6442    0.0000 C   0  0  0  0  0  0  0  0  0  0  0  0
   -1.1436    5.6441    0.0000 C   0  0  0  0  0  0  0  0  0  0  0  0
   -1.6513    4.7766    0.0000 C   0  0  0  0  0  0  0  0  0  0  0  0
   -1.1435    3.9091    0.0000 C   0  0  0  0  0  0  0  0  0  0  0  0
   -0.1383    3.9092    0.0000 C   0  0  0  0  0  0  0  0  0  0  0  0
    0.3630    3.0439    0.0000 C   0  0  0  0  0  0  0  0  0  0  0  0
   -0.5022    2.5426    0.0000 C   0  0  0  0  0  0  0  0  0  0  0  0
   -0.5007    1.5426    0.0000 N   0  0  0  0  0  0  0  0  0  0  0  0
    0.3118    0.9518    0.0000 N   0  0  0  0  0  0  0  0  0  0  0  0
    0.0000    0.0000    0.0000 C   0  0  0  0  0  0  0  0  0  0  0  0
   -1.0015    0.0000    0.0000 N   0  0  0  0  0  0  0  0  0  0  0  0
   -1.3080    0.9518    0.0000 C   0  0  0  0  0  0  0  0  0  0  0  0
    1.2283    3.5452    0.0000 O   0  0  0  0  0  0  0  0  0  0  0  0
    0.8644    2.1787    0.0000 C   0  0  0  0  0  0  0  0  0  0  0  0
    1.8644    2.1802    0.0000 N   0  0  0  0  0  0  0  0  0  0  0  0
    2.4552    1.3729    0.0000 C   0  0  0  0  0  0  0  0  0  0  0  0
    3.4070    1.6794    0.0000 N   0  0  0  0  0  0  0  0  0  0  0  0
    3.4070    2.6809    0.0000 C   0  0  0  0  0  0  0  0  0  0  0  0
    2.4552    2.9927    0.0000 N   0  0  0  0  0  0  0  0  0  0  0  0
    0.3591    4.7767    0.0000 C   0  0  0  0  0  0  0  0  0  0  0  0
   -1.6409    3.0416    0.0000 F   0  0  0  0  0  0  0  0  0  0  0  0
   -1.6411    6.5116    0.0000 F   0  0  0  0  0  0  0  0  0  0  0  0
  1 20  2  0  0  0  0
  1  2  1  0  0  0  0
  2  3  2  0  0  0  0
  3  4  1  0  0  0  0
  4  5  2  0  0  0  0
  5  6  1  0  0  0  0
  6  7  1  0  0  0  0
  7  8  1  0  0  0  0
  8 12  1  0  0  0  0
  8  9  1  0  0  0  0
  9 10  2  0  0  0  0
 10 11  1  0  0  0  0
 11 12  2  0  0  0  0
  6 13  1  0  0  0  0
  6 14  1  0  0  0  0
 14 15  1  0  0  0  0
 15 19  1  0  0  0  0
 15 16  1  0  0  0  0
 16 17  2  0  0  0  0
 17 18  1  0  0  0  0
 18 19  2  0  0  0  0
  5 20  1  0  0  0  0
  4 21  1  0  0  0  0
  2 22  1  0  0  0  0
M  END
>  <Name>
Fluconazole

>  <CAS #>
86386-73-4

>  <human Clearance (mL/min/kg)>
0.31

>  <Primary mechanism (metabolic, biliary or renal)>
renal

>  <seqId>
380.0

>  <Code (mechanism and clearance degree index)>
R1

>  < Five M1 and R1 test groups>
R1_2

>  <formamide>
0

>  <prodrug phosphates>
0

>  <VolSurf_V>
587.875

>  <VolSurf_S>
405.122

>  <VolSurf_R>
1.4511

>  <VolSurf_G>
1.30427

>  <VolSurf_IW1>
0.0126973

>  <VolSurf_IW2>
0.0173318

>  <VolSurf_IW3>
0.114562

>  <VolSurf_IW4>
0.619233

>  <VolSurf_ID1>
0.0615316

>  <VolSurf_ID2>
0.0911175

>  <VolSurf_ID3>
0.0611789

>  <VolSurf_ID4>
0.0597917

>  <VolSurf_HL1>
8.56

>  <VolSurf_HL2>
5.22472

>  <VolSurf_A>
1.30514

>  <VolSurf_CP>
0.30723

>  <VolSurf_POL>
28.876

>  <VolSurf_MW>
306.271

>  <VolSurf_FLEX>
1.77807

>  <VolSurf_FLEX_RB>
0.296345

>  <VolSurf_NCC>
0.0

>  <VolSurf_LOGP n-Oct>
0.194

>  <VolSurf_LOGP c-Hex>
-4.572

>  <VolSurf_PSA>
87.57

>  <VolSurf_HSA>
317.552

>  <VolSurf_PSAR>
0.216157

>  <VolSurf_PHSAR>
0.275766

>  <VolSurf_LgD5>
0.189516

>  <VolSurf_LgD6>
0.193551

>  <VolSurf_LgD7>
0.193955

>  <VolSurf_LgD7.5>
0.193986

>  <VolSurf_LgD8>
0.193995

>  <VolSurf_LgD9>
0.193992

>  <VolSurf_LgD10>
0.193925

>  <VolSurf_AUS7.4>
2.0

>  <VolSurf_%FU4>
90.397

>  <VolSurf_%FU5>
98.9725

>  <VolSurf_%FU6>
99.8965

>  <VolSurf_%FU7>
99.9896

>  <VolSurf_%FU8>
99.9988

>  <VolSurf_%FU9>
99.9982

>  <VolSurf_%FU10>
99.9826

>  <ID>
184

>  <MOKAID>
185

>  <Clearance Route>
metabolic

>  <PC1>
1.58635

>  <PC2>
1.1919799999999998

$$$$
Flucytosine
  -OEChem-08301611272D

  9  9  0     0  0  0  0  0  0999 V2000
    0.8675   -1.4975    0.0000 N   0  0  0  0  0  0  0  0  0  0  0  0
    0.8675   -0.4975    0.0000 C   0  0  0  0  0  0  0  0  0  0  0  0
    0.0000    0.0000    0.0000 C   0  0  0  0  0  0  0  0  0  0  0  0
   -0.8653   -0.5013    0.0000 F   0  0  0  0  0  0  0  0  0  0  0  0
   -0.0000    1.0052    0.0000 C   0  0  0  0  0  0  0  0  0  0  0  0
    0.8675    1.5129    0.0000 N   0  0  0  0  0  0  0  0  0  0  0  0
    1.7350    1.0052    0.0000 C   0  0  0  0  0  0  0  0  0  0  0  0
    2.6025    1.5026    0.0000 O   0  0  0  0  0  0  0  0  0  0  0  0
    1.7350    0.0000    0.0000 N   0  0  0  0  0  0  0  0  0  0  0  0
  1  2  1  0  0  0  0
  2  9  1  0  0  0  0
  2  3  2  0  0  0  0
  3  4  1  0  0  0  0
  3  5  1  0  0  0  0
  5  6  2  0  0  0  0
  6  7  1  0  0  0  0
  7  8  2  0  0  0  0
  7  9  1  0  0  0  0
M  END
>  <Name>
Flucytosine

>  <CAS #>
2022-85-7

>  <human Clearance (mL/min/kg)>
2.0

>  <Primary mechanism (metabolic, biliary or renal)>
renal

>  <seqId>
381.0

>  <Code (mechanism and clearance degree index)>
R1

>  < Five M1 and R1 test groups>
R1_1

>  <formamide>
0

>  <prodrug phosphates>
0

>  <VolSurf_V>
265.875

>  <VolSurf_S>
212.561

>  <VolSurf_R>
1.25082

>  <VolSurf_G>
1.09603

>  <VolSurf_IW1>
0.0994687

>  <VolSurf_IW2>
0.256228

>  <VolSurf_IW3>
0.79054

>  <VolSurf_IW4>
2.17854

>  <VolSurf_ID1>
0.0483653

>  <VolSurf_ID2>
0.0723743

>  <VolSurf_ID3>
0.0921976

>  <VolSurf_ID4>
0.118025

>  <VolSurf_HL1>
4.30645

>  <VolSurf_HL2>
2.784

>  <VolSurf_A>
1.19173

>  <VolSurf_CP>
1.62259

>  <VolSurf_POL>
10.74

>  <VolSurf_MW>
129.092

>  <VolSurf_FLEX>
7.0201E-7

>  <VolSurf_FLEX_RB>
7.0201E-7

>  <VolSurf_NCC>
0.0

>  <VolSurf_LOGP n-Oct>
-2.29

>  <VolSurf_LOGP c-Hex>
-1.177

>  <VolSurf_PSA>
73.15

>  <VolSurf_HSA>
139.411

>  <VolSurf_PSAR>
0.344136

>  <VolSurf_PHSAR>
0.524706

>  <VolSurf_LgD5>
-2.29127

>  <VolSurf_LgD6>
-2.29023

>  <VolSurf_LgD7>
-2.29102

>  <VolSurf_LgD7.5>
-2.29317

>  <VolSurf_LgD8>
-2.29994

>  <VolSurf_LgD9>
-2.38038

>  <VolSurf_LgD10>
-2.81009

>  <VolSurf_AUS7.4>
2.0

>  <VolSurf_%FU4>
97.1704

>  <VolSurf_%FU5>
99.7074

>  <VolSurf_%FU6>
99.9478

>  <VolSurf_%FU7>
99.7662

>  <VolSurf_%FU8>
97.7376

>  <VolSurf_%FU9>
81.2054

>  <VolSurf_%FU10>
30.1709

>  <ID>
185

>  <MOKAID>
186

>  <Clearance Route>
uncertain

>  <PC1>
0.16435

>  <PC2>
5.58396

$$$$
Fludarabine
  -OEChem-08301611272D

 20 22  0     1  0  0  0  0  0999 V2000
    0.0000    1.0000    0.0000 N   0  0  0  0  0  0  0  0  0  0  0  0
    0.0000    0.0000    0.0000 C   0  0  0  0  0  0  0  0  0  0  0  0
   -0.8680   -0.5079    0.0000 N   0  0  0  0  0  0  0  0  0  0  0  0
   -0.8680   -1.5137    0.0000 C   0  0  0  0  0  0  0  0  0  0  0  0
   -1.7333   -2.0149    0.0000 F   0  0  0  0  0  0  0  0  0  0  0  0
    0.0000   -2.0116    0.0000 N   0  0  0  0  0  0  0  0  0  0  0  0
    0.8680   -1.5150    0.0000 C   0  0  0  0  0  0  0  0  0  0  0  0
    0.8680   -0.5079    0.0000 C   0  0  0  0  0  0  0  0  0  0  0  0
    1.8258   -0.1969    0.0000 N   0  0  0  0  0  0  0  0  0  0  0  0
    2.4178   -1.0115    0.0000 C   0  0  0  0  0  0  0  0  0  0  0  0
    1.8258   -1.8263    0.0000 N   0  0  0  0  0  0  0  0  0  0  0  0
    2.1348   -2.7774    0.0000 C   0  0  2  0  0  0  0  0  0  0  0  0
    1.5450   -3.5907    0.0000 O   0  0  0  0  0  0  0  0  0  0  0  0
    2.1370   -4.3972    0.0000 C   0  0  2  0  0  0  0  0  0  0  0  0
    1.8297   -5.3488    0.0000 C   0  0  0  0  0  0  0  0  0  0  0  0
    2.5002   -6.0907    0.0000 O   0  0  0  0  0  0  0  0  0  0  0  0
    3.0885   -4.0894    0.0000 C   0  0  1  0  0  0  0  0  0  0  0  0
    3.8975   -4.6771    0.0000 O   0  0  0  0  0  0  0  0  0  0  0  0
    3.0871   -3.0879    0.0000 C   0  0  2  0  0  0  0  0  0  0  0  0
    3.8960   -2.4999    0.0000 O   0  0  0  0  0  0  0  0  0  0  0  0
  1  2  1  0  0  0  0
  2  8  2  0  0  0  0
  2  3  1  0  0  0  0
  3  4  2  0  0  0  0
  4  5  1  0  0  0  0
  4  6  1  0  0  0  0
  6  7  2  0  0  0  0
  7 11  1  0  0  0  0
  7  8  1  0  0  0  0
  8  9  1  0  0  0  0
  9 10  2  0  0  0  0
 10 11  1  0  0  0  0
 12 11  1  1  0  0  0
 12 19  1  0  0  0  0
 12 13  1  0  0  0  0
 13 14  1  0  0  0  0
 14 15  1  1  0  0  0
 15 16  1  0  0  0  0
 14 17  1  0  0  0  0
 17 18  1  6  0  0  0
 17 19  1  0  0  0  0
 19 20  1  1  0  0  0
M  END
>  <Name>
Fludarabine

>  <CAS #>
21679-14-1

>  <human Clearance (mL/min/kg)>
3.2

>  <Primary mechanism (metabolic, biliary or renal)>
rapidly dephosphorylated to 2F-ara-A

>  <seqId>
382.0

>  <Code (mechanism and clearance degree index)>
M1

>  < Five M1 and R1 test groups>
M1_1

>  <formamide>
0

>  <prodrug phosphates>
0

>  <VolSurf_V>
516.125

>  <VolSurf_S>
380.673

>  <VolSurf_R>
1.35582

>  <VolSurf_G>
1.35315

>  <VolSurf_IW1>
0.0292076

>  <VolSurf_IW2>
0.0473023

>  <VolSurf_IW3>
0.137323

>  <VolSurf_IW4>
0.298133

>  <VolSurf_ID1>
0.173087

>  <VolSurf_ID2>
0.267571

>  <VolSurf_ID3>
0.333405

>  <VolSurf_ID4>
0.412751

>  <VolSurf_HL1>
10.9868

>  <VolSurf_HL2>
6.69355

>  <VolSurf_A>
3.90337

>  <VolSurf_CP>
0.131348

>  <VolSurf_POL>
24.823

>  <VolSurf_MW>
285.232

>  <VolSurf_FLEX>
0.594068

>  <VolSurf_FLEX_RB>
0.0990114

>  <VolSurf_NCC>
0.0

>  <VolSurf_LOGP n-Oct>
-1.751

>  <VolSurf_LOGP c-Hex>
-7.034

>  <VolSurf_PSA>
145.54

>  <VolSurf_HSA>
235.133

>  <VolSurf_PSAR>
0.382323

>  <VolSurf_PHSAR>
0.618968

>  <VolSurf_LgD5>
-1.75116

>  <VolSurf_LgD6>
-1.75102

>  <VolSurf_LgD7>
-1.75101

>  <VolSurf_LgD7.5>
-1.75104

>  <VolSurf_LgD8>
-1.75112

>  <VolSurf_LgD9>
-1.7522

>  <VolSurf_LgD10>
-1.76289

>  <VolSurf_AUS7.4>
2.0

>  <VolSurf_%FU4>
99.6313

>  <VolSurf_%FU5>
99.963

>  <VolSurf_%FU6>
99.996

>  <VolSurf_%FU7>
99.9969

>  <VolSurf_%FU8>
99.9724

>  <VolSurf_%FU9>
99.7248

>  <VolSurf_%FU10>
97.2984

>  <ID>
186

>  <MOKAID>
187

>  <Clearance Route>
uncertain

>  <PC1>
-1.19205

>  <PC2>
3.4523699999999997

$$$$
Flumazenil
  -OEChem-08301611272D

 22 24  0     0  0  0  0  0  0999 V2000
   -7.9654   -1.2474    0.0000 C   0  0  0  0  0  0  0  0  0  0  0  0
   -7.0538   -1.6585    0.0000 C   0  0  0  0  0  0  0  0  0  0  0  0
   -6.2420   -1.0746    0.0000 O   0  0  0  0  0  0  0  0  0  0  0  0
   -5.3304   -1.4856    0.0000 C   0  0  0  0  0  0  0  0  0  0  0  0
   -5.2306   -2.4806    0.0000 O   0  0  0  0  0  0  0  0  0  0  0  0
   -4.5186   -0.9017    0.0000 C   0  0  0  0  0  0  0  0  0  0  0  0
   -4.5134    0.1012    0.0000 N   0  0  0  0  0  0  0  0  0  0  0  0
   -3.5561    0.4052    0.0000 C   0  0  0  0  0  0  0  0  0  0  0  0
   -2.9735   -0.4103    0.0000 N   0  0  0  0  0  0  0  0  0  0  0  0
   -3.5662   -1.2157    0.0000 C   0  0  0  0  0  0  0  0  0  0  0  0
   -3.3079   -2.1883    0.0000 C   0  0  0  0  0  0  0  0  0  0  0  0
   -2.3708   -2.6190    0.0000 N   0  0  0  0  0  0  0  0  0  0  0  0
   -2.3238   -3.6179    0.0000 C   0  0  0  0  0  0  0  0  0  0  0  0
   -1.5045   -2.1175    0.0000 C   0  0  0  0  0  0  0  0  0  0  0  0
   -0.6890   -2.6963    0.0000 O   0  0  0  0  0  0  0  0  0  0  0  0
   -1.3171   -1.1348    0.0000 C   0  0  0  0  0  0  0  0  0  0  0  0
   -0.3293   -0.9473    0.0000 C   0  0  0  0  0  0  0  0  0  0  0  0
    0.0000    0.0000    0.0000 C   0  0  0  0  0  0  0  0  0  0  0  0
    0.9824    0.1868    0.0000 F   0  0  0  0  0  0  0  0  0  0  0  0
   -0.6535    0.7598    0.0000 C   0  0  0  0  0  0  0  0  0  0  0  0
   -1.6362    0.5723    0.0000 C   0  0  0  0  0  0  0  0  0  0  0  0
   -1.9705   -0.3749    0.0000 C   0  0  0  0  0  0  0  0  0  0  0  0
  1  2  1  0  0  0  0
  2  3  1  0  0  0  0
  3  4  1  0  0  0  0
  4  5  2  0  0  0  0
  4  6  1  0  0  0  0
  6 10  2  0  0  0  0
  6  7  1  0  0  0  0
  7  8  2  0  0  0  0
  8  9  1  0  0  0  0
  9 22  1  0  0  0  0
  9 10  1  0  0  0  0
 10 11  1  0  0  0  0
 11 12  1  0  0  0  0
 12 13  1  0  0  0  0
 12 14  1  0  0  0  0
 14 15  2  0  0  0  0
 14 16  1  0  0  0  0
 16 22  2  0  0  0  0
 16 17  1  0  0  0  0
 17 18  2  0  0  0  0
 18 19  1  0  0  0  0
 18 20  1  0  0  0  0
 20 21  2  0  0  0  0
 21 22  1  0  0  0  0
M  END
>  <Name>
Flumazenil

>  <CAS #>
78755-81-4

>  <human Clearance (mL/min/kg)>
16.0

>  <Primary mechanism (metabolic, biliary or renal)>
metabolic

>  <seqId>
383.0

>  <Code (mechanism and clearance degree index)>
M1

>  < Five M1 and R1 test groups>
M1_5

>  <formamide>
0

>  <prodrug phosphates>
0

>  <VolSurf_V>
627.625

>  <VolSurf_S>
436.301

>  <VolSurf_R>
1.43851

>  <VolSurf_G>
1.36538

>  <VolSurf_IW1>
0.0880814

>  <VolSurf_IW2>
0.172668

>  <VolSurf_IW3>
0.37044

>  <VolSurf_IW4>
0.480474

>  <VolSurf_ID1>
0.0281869

>  <VolSurf_ID2>
0.0941785

>  <VolSurf_ID3>
0.102704

>  <VolSurf_ID4>
0.136124

>  <VolSurf_HL1>
1.85909

>  <VolSurf_HL2>
0.933908

>  <VolSurf_A>
1.69645

>  <VolSurf_CP>
1.43021

>  <VolSurf_POL>
29.524

>  <VolSurf_MW>
303.288

>  <VolSurf_FLEX>
0.553635

>  <VolSurf_FLEX_RB>
0.110727

>  <VolSurf_NCC>
0.0

>  <VolSurf_LOGP n-Oct>
1.037

>  <VolSurf_LOGP c-Hex>
2.556

>  <VolSurf_PSA>
67.42

>  <VolSurf_HSA>
368.881

>  <VolSurf_PSAR>
0.154526

>  <VolSurf_PHSAR>
0.182769

>  <VolSurf_LgD5>
1.03689

>  <VolSurf_LgD6>
1.03699

>  <VolSurf_LgD7>
1.037

>  <VolSurf_LgD7.5>
1.037

>  <VolSurf_LgD8>
1.037

>  <VolSurf_LgD9>
1.037

>  <VolSurf_LgD10>
1.037

>  <VolSurf_AUS7.4>
2.0

>  <VolSurf_%FU4>
99.7545

>  <VolSurf_%FU5>
99.9754

>  <VolSurf_%FU6>
99.9975

>  <VolSurf_%FU7>
99.9998

>  <VolSurf_%FU8>
100.0

>  <VolSurf_%FU9>
100.0

>  <VolSurf_%FU10>
100.0

>  <ID>
187

>  <MOKAID>
188

>  <Clearance Route>
metabolic

>  <PC1>
3.0535900000000002

>  <PC2>
0.9899629999999999

$$$$
Flunisolide
  -OEChem-08301611272D

 35 39  0     1  0  0  0  0  0999 V2000
    6.8600    2.3306    0.0000 O   0  0  0  0  0  0  0  0  0  0  0  0
    5.8990    2.0186    0.0000 C   0  0  2  0  0  0  0  0  0  0  0  0
    5.3110    1.1991    0.0000 C   0  0  0  0  0  0  0  0  0  0  0  0
    4.3477    1.5085    0.0000 C   0  0  1  0  0  0  0  0  0  0  0  0
    3.4759    1.0071    0.0000 C   0  0  2  0  0  0  0  0  0  0  0  0
    3.4748    0.0023    0.0000 C   0  0  0  0  0  0  0  0  0  0  0  0
    2.6038   -0.4989    0.0000 C   0  0  2  0  0  0  0  0  0  0  0  0
    2.6037   -1.4989    0.0000 F   0  0  0  0  0  0  0  0  0  0  0  0
    1.7371    0.0000    0.0000 C   0  0  0  0  0  0  0  0  0  0  0  0
    0.8679   -0.4977    0.0000 C   0  0  0  0  0  0  0  0  0  0  0  0
   -0.0000    0.0000    0.0000 C   0  0  0  0  0  0  0  0  0  0  0  0
   -0.8653   -0.5013    0.0000 O   0  0  0  0  0  0  0  0  0  0  0  0
    0.0000    1.0111    0.0000 C   0  0  0  0  0  0  0  0  0  0  0  0
    0.8679    1.5136    0.0000 C   0  0  0  0  0  0  0  0  0  0  0  0
    1.7358    1.0056    0.0000 C   0  0  2  0  0  0  0  0  0  0  0  0
    2.6037    0.5088    0.0000 C   0  0  0  0  0  0  0  0  0  0  0  0
    2.6012    1.5124    0.0000 C   0  0  1  0  0  0  0  0  0  0  0  0
    2.5967    2.5197    0.0000 C   0  0  2  0  0  0  0  0  0  0  0  0
    3.4743    3.0237    0.0000 C   0  0  0  0  0  0  0  0  0  0  0  0
    4.3442    2.5202    0.0000 C   0  0  2  0  0  0  0  0  0  0  0  0
    5.3053    2.8360    0.0000 C   0  0  1  0  0  0  0  0  0  0  0  0
    4.2744    4.2502    0.0000 C   0  0  0  0  0  0  0  0  0  0  0  0
    3.2801    4.1441    0.0000 C   0  0  0  0  0  0  0  0  0  0  0  0
    2.6910    4.9521    0.0000 O   0  0  0  0  0  0  0  0  0  0  0  0
    4.6797    5.1643    0.0000 O   0  0  0  0  0  0  0  0  0  0  0  0
    5.8993    3.6533    0.0000 O   0  0  0  0  0  0  0  0  0  0  0  0
    6.8602    3.3411    0.0000 C   0  0  0  0  0  0  0  0  0  0  0  0
    7.0682    4.3192    0.0000 C   0  0  0  0  0  0  0  0  0  0  0  0
    7.8547    3.2364    0.0000 C   0  0  0  0  0  0  0  0  0  0  0  0
    5.1552    1.9352    0.0000 C   0  0  0  0  0  0  0  0  0  0  0  0
    1.7301    3.0188    0.0000 O   0  0  0  0  0  0  0  0  0  0  0  0
    6.4891    1.2113    0.0000 H   0  0  0  0  0  0  0  0  0  0  0  0
    4.4531    0.5141    0.0000 H   0  0  0  0  0  0  0  0  0  0  0  0
    4.3412    0.5059    0.0000 H   0  0  0  0  0  0  0  0  0  0  0  0
    1.7325    2.0078    0.0000 H   0  0  0  0  0  0  0  0  0  0  0  0
  1 27  1  0  0  0  0
  1  2  1  0  0  0  0
  2 21  1  0  0  0  0
  2  3  1  0  0  0  0
  3  4  1  0  0  0  0
  4 20  1  0  0  0  0
  4  5  1  0  0  0  0
  5 17  1  0  0  0  0
  5  6  1  0  0  0  0
  6  7  1  0  0  0  0
  7  8  1  6  0  0  0
  7  9  1  0  0  0  0
  9 15  1  0  0  0  0
  9 10  2  0  0  0  0
 10 11  1  0  0  0  0
 11 12  2  0  0  0  0
 11 13  1  0  0  0  0
 13 14  2  0  0  0  0
 14 15  1  0  0  0  0
 15 16  1  6  0  0  0
 15 17  1  0  0  0  0
 17 18  1  0  0  0  0
 18 19  1  0  0  0  0
 19 20  1  0  0  0  0
 20 21  1  0  0  0  0
 21 22  1  1  0  0  0
 22 23  1  0  0  0  0
 23 24  1  0  0  0  0
 22 25  2  0  0  0  0
 21 26  1  0  0  0  0
 26 27  1  0  0  0  0
 27 28  1  0  0  0  0
 27 29  1  0  0  0  0
 20 30  1  1  0  0  0
 18 31  1  1  0  0  0
  2 32  1  1  0  0  0
  4 33  1  6  0  0  0
  5 34  1  1  0  0  0
 17 35  1  6  0  0  0
M  END
>  <Name>
Flunisolide

>  <CAS #>
3385-03-3

>  <human Clearance (mL/min/kg)>
9.5

>  <Primary mechanism (metabolic, biliary or renal)>
metabolic

>  <seqId>
384.0

>  <Code (mechanism and clearance degree index)>
M1

>  < Five M1 and R1 test groups>
M1_5

>  <formamide>
0

>  <prodrug phosphates>
0

>  <VolSurf_V>
840.0

>  <VolSurf_S>
538.273

>  <VolSurf_R>
1.56055

>  <VolSurf_G>
1.39797

>  <VolSurf_IW1>
0.050667

>  <VolSurf_IW2>
0.0956943

>  <VolSurf_IW3>
0.231259

>  <VolSurf_IW4>
0.518255

>  <VolSurf_ID1>
0.0247139

>  <VolSurf_ID2>
0.162017

>  <VolSurf_ID3>
0.253825

>  <VolSurf_ID4>
0.303942

>  <VolSurf_HL1>
17.7033

>  <VolSurf_HL2>
15.72

>  <VolSurf_A>
4.80926

>  <VolSurf_CP>
0.0602952

>  <VolSurf_POL>
42.607

>  <VolSurf_MW>
434.498

>  <VolSurf_FLEX>
0.280551

>  <VolSurf_FLEX_RB>
0.0350689

>  <VolSurf_NCC>
0.0

>  <VolSurf_LOGP n-Oct>
2.455

>  <VolSurf_LOGP c-Hex>
2.56

>  <VolSurf_PSA>
105.06

>  <VolSurf_HSA>
433.213

>  <VolSurf_PSAR>
0.19518

>  <VolSurf_PHSAR>
0.242513

>  <VolSurf_LgD5>
2.455

>  <VolSurf_LgD6>
2.455

>  <VolSurf_LgD7>
2.45499

>  <VolSurf_LgD7.5>
2.45498

>  <VolSurf_LgD8>
2.45495

>  <VolSurf_LgD9>
2.4545

>  <VolSurf_LgD10>
2.45007

>  <VolSurf_AUS7.4>
2.0

>  <VolSurf_%FU4>
100.0

>  <VolSurf_%FU5>
100.0

>  <VolSurf_%FU6>
99.9999

>  <VolSurf_%FU7>
99.9989

>  <VolSurf_%FU8>
99.9886

>  <VolSurf_%FU9>
99.886

>  <VolSurf_%FU10>
98.8706

>  <ID>
188

>  <MOKAID>
189

>  <Clearance Route>
metabolic

>  <PC1>
3.41566

>  <PC2>
-0.353468

$$$$
Flunitrazepam
  -OEChem-08301611272D

 23 25  0     0  0  0  0  0  0999 V2000
    1.6379    3.0716    0.0000 C   0  0  0  0  0  0  0  0  0  0  0  0
    2.0794    2.1743    0.0000 N   0  0  0  0  0  0  0  0  0  0  0  0
    3.0873    2.1814    0.0000 C   0  0  0  0  0  0  0  0  0  0  0  0
    3.5119    3.0868    0.0000 O   0  0  0  0  0  0  0  0  0  0  0  0
    3.7246    1.4039    0.0000 C   0  0  0  0  0  0  0  0  0  0  0  0
    3.5069    0.4226    0.0000 N   0  0  0  0  0  0  0  0  0  0  0  0
    2.6022   -0.0243    0.0000 C   0  0  0  0  0  0  0  0  0  0  0  0
    2.6132   -1.0242    0.0000 C   0  0  0  0  0  0  0  0  0  0  0  0
    1.7535   -1.5350    0.0000 C   0  0  0  0  0  0  0  0  0  0  0  0
    1.7601   -2.5350    0.0000 C   0  0  0  0  0  0  0  0  0  0  0  0
    2.6354   -3.0293    0.0000 C   0  0  0  0  0  0  0  0  0  0  0  0
    3.5040   -2.5235    0.0000 C   0  0  0  0  0  0  0  0  0  0  0  0
    3.4885   -1.5185    0.0000 C   0  0  0  0  0  0  0  0  0  0  0  0
    4.3482   -1.0077    0.0000 F   0  0  0  0  0  0  0  0  0  0  0  0
    1.6906    0.4013    0.0000 C   0  0  0  0  0  0  0  0  0  0  0  0
    0.9648   -0.2906    0.0000 C   0  0  0  0  0  0  0  0  0  0  0  0
    0.0000    0.0000    0.0000 C   0  0  0  0  0  0  0  0  0  0  0  0
   -0.2322    0.9784    0.0000 C   0  0  0  0  0  0  0  0  0  0  0  0
    0.5003    1.6662    0.0000 C   0  0  0  0  0  0  0  0  0  0  0  0
    1.4584    1.3796    0.0000 C   0  0  0  0  0  0  0  0  0  0  0  0
   -0.7278   -0.6857    0.0000 N   0  0  0  0  0  0  0  0  0  0  0  0
   -0.4979   -1.6589    0.0000 O   0  0  0  0  0  0  0  0  0  0  0  0
   -1.6856   -0.3983    0.0000 O   0  0  0  0  0  0  0  0  0  0  0  0
  1  2  1  0  0  0  0
  2 20  1  0  0  0  0
  2  3  1  0  0  0  0
  3  4  2  0  0  0  0
  3  5  1  0  0  0  0
  5  6  1  0  0  0  0
  6  7  2  0  0  0  0
  7  8  1  0  0  0  0
  8 13  2  0  0  0  0
  8  9  1  0  0  0  0
  9 10  2  0  0  0  0
 10 11  1  0  0  0  0
 11 12  2  0  0  0  0
 12 13  1  0  0  0  0
 13 14  1  0  0  0  0
  7 15  1  0  0  0  0
 15 20  2  0  0  0  0
 15 16  1  0  0  0  0
 16 17  2  0  0  0  0
 17 18  1  0  0  0  0
 18 19  2  0  0  0  0
 19 20  1  0  0  0  0
 17 21  1  0  0  0  0
 21 22  2  0  0  0  0
 21 23  2  0  0  0  0
M  END
>  <Name>
Flunitrazepam

>  <CAS #>
1622-62-4

>  <human Clearance (mL/min/kg)>
1.4

>  <Primary mechanism (metabolic, biliary or renal)>
metabolic

>  <seqId>
385.0

>  <Code (mechanism and clearance degree index)>
M1

>  < Five M1 and R1 test groups>
M1_3

>  <formamide>
0

>  <prodrug phosphates>
0

>  <VolSurf_V>
646.375

>  <VolSurf_S>
440.426

>  <VolSurf_R>
1.46761

>  <VolSurf_G>
1.34462

>  <VolSurf_IW1>
0.0602359

>  <VolSurf_IW2>
0.159183

>  <VolSurf_IW3>
0.752653

>  <VolSurf_IW4>
1.66099

>  <VolSurf_ID1>
0.0204198

>  <VolSurf_ID2>
0.0385787

>  <VolSurf_ID3>
0.0667202

>  <VolSurf_ID4>
0.0948943

>  <VolSurf_HL1>
1.66412

>  <VolSurf_HL2>
0.895753

>  <VolSurf_A>
3.74901

>  <VolSurf_CP>
3.09132

>  <VolSurf_POL>
30.752

>  <VolSurf_MW>
313.283

>  <VolSurf_FLEX>
0.553672

>  <VolSurf_FLEX_RB>
0.184557

>  <VolSurf_NCC>
0.0

>  <VolSurf_LOGP n-Oct>
2.065

>  <VolSurf_LOGP c-Hex>
1.985

>  <VolSurf_PSA>
75.26

>  <VolSurf_HSA>
365.166

>  <VolSurf_PSAR>
0.17088

>  <VolSurf_PHSAR>
0.206098

>  <VolSurf_LgD5>
2.06464

>  <VolSurf_LgD6>
2.06496

>  <VolSurf_LgD7>
2.065

>  <VolSurf_LgD7.5>
2.065

>  <VolSurf_LgD8>
2.065

>  <VolSurf_LgD9>
2.065

>  <VolSurf_LgD10>
2.065

>  <VolSurf_AUS7.4>
2.0

>  <VolSurf_%FU4>
99.1695

>  <VolSurf_%FU5>
99.9163

>  <VolSurf_%FU6>
99.9916

>  <VolSurf_%FU7>
99.9992

>  <VolSurf_%FU8>
99.9999

>  <VolSurf_%FU9>
100.0

>  <VolSurf_%FU10>
100.0

>  <ID>
189

>  <MOKAID>
190

>  <Clearance Route>
metabolic

>  <PC1>
4.12867

>  <PC2>
0.9257

$$$$
Fluorescein
  -OEChem-08301611272D

 25 29  0     0  0  0  0  0  0999 V2000
    6.2759    2.6577    0.0000 O   0  0  0  0  0  0  0  0  0  0  0  0
    5.2977    2.4499    0.0000 C   0  0  0  0  0  0  0  0  0  0  0  0
    4.9886    1.4986    0.0000 C   0  0  0  0  0  0  0  0  0  0  0  0
    4.0104    1.2907    0.0000 C   0  0  0  0  0  0  0  0  0  0  0  0
    3.3409    2.0340    0.0000 C   0  0  0  0  0  0  0  0  0  0  0  0
    3.6501    2.9853    0.0000 C   0  0  0  0  0  0  0  0  0  0  0  0
    2.9809    3.7286    0.0000 O   0  0  0  0  0  0  0  0  0  0  0  0
    2.0025    3.5206    0.0000 C   0  0  0  0  0  0  0  0  0  0  0  0
    1.3331    4.2638    0.0000 C   0  0  0  0  0  0  0  0  0  0  0  0
    0.3549    4.0559    0.0000 C   0  0  0  0  0  0  0  0  0  0  0  0
   -0.3142    4.7991    0.0000 O   0  0  0  0  0  0  0  0  0  0  0  0
    0.0457    3.1047    0.0000 C   0  0  0  0  0  0  0  0  0  0  0  0
    0.7152    2.3614    0.0000 C   0  0  0  0  0  0  0  0  0  0  0  0
    1.6933    2.5693    0.0000 C   0  0  0  0  0  0  0  0  0  0  0  0
    2.3628    1.8260    0.0000 C   0  0  0  0  0  0  0  0  0  0  0  0
    3.1023    1.1527    0.0000 O   0  0  0  0  0  0  0  0  0  0  0  0
    2.6907    0.2413    0.0000 C   0  0  0  0  0  0  0  0  0  0  0  0
    3.1861   -0.6274    0.0000 O   0  0  0  0  0  0  0  0  0  0  0  0
    1.6965    0.3511    0.0000 C   0  0  0  0  0  0  0  0  0  0  0  0
    0.9498   -0.3142    0.0000 C   0  0  0  0  0  0  0  0  0  0  0  0
    0.0000    0.0000    0.0000 C   0  0  0  0  0  0  0  0  0  0  0  0
   -0.2027    0.9794    0.0000 C   0  0  0  0  0  0  0  0  0  0  0  0
    0.5442    1.6447    0.0000 C   0  0  0  0  0  0  0  0  0  0  0  0
    1.4938    1.3306    0.0000 C   0  0  0  0  0  0  0  0  0  0  0  0
    4.6286    3.1932    0.0000 C   0  0  0  0  0  0  0  0  0  0  0  0
  1  2  1  0  0  0  0
  2 25  2  0  0  0  0
  2  3  1  0  0  0  0
  3  4  2  0  0  0  0
  4  5  1  0  0  0  0
  5 15  1  0  0  0  0
  5  6  2  0  0  0  0
  6  7  1  0  0  0  0
  7  8  1  0  0  0  0
  8 14  2  0  0  0  0
  8  9  1  0  0  0  0
  9 10  2  0  0  0  0
 10 11  1  0  0  0  0
 10 12  1  0  0  0  0
 12 13  2  0  0  0  0
 13 14  1  0  0  0  0
 14 15  1  0  0  0  0
 15 24  1  0  0  0  0
 15 16  1  0  0  0  0
 16 17  1  0  0  0  0
 17 18  2  0  0  0  0
 17 19  1  0  0  0  0
 19 24  2  0  0  0  0
 19 20  1  0  0  0  0
 20 21  2  0  0  0  0
 21 22  1  0  0  0  0
 22 23  2  0  0  0  0
 23 24  1  0  0  0  0
  6 25  1  0  0  0  0
M  END
>  <Name>
Fluorescein

>  <CAS #>
2321-07-5

>  <human Clearance (mL/min/kg)>
1.3

>  <Primary mechanism (metabolic, biliary or renal)>
metabolic

>  <seqId>
386.0

>  <Code (mechanism and clearance degree index)>
M1

>  < Five M1 and R1 test groups>
M1_4

>  <formamide>
0

>  <prodrug phosphates>
0

>  <VolSurf_V>
667.875

>  <VolSurf_S>
452.943

>  <VolSurf_R>
1.47452

>  <VolSurf_G>
1.3572

>  <VolSurf_IW1>
0.0487754

>  <VolSurf_IW2>
0.113261

>  <VolSurf_IW3>
0.341402

>  <VolSurf_IW4>
1.20034

>  <VolSurf_ID1>
0.0433034

>  <VolSurf_ID2>
0.0240352

>  <VolSurf_ID3>
0.0291223

>  <VolSurf_ID4>
0.0677267

>  <VolSurf_HL1>
1.89891

>  <VolSurf_HL2>
1.21097

>  <VolSurf_A>
2.11172

>  <VolSurf_CP>
4.4033

>  <VolSurf_POL>
34.51

>  <VolSurf_MW>
332.306

>  <VolSurf_FLEX>
1.23143E-6

>  <VolSurf_FLEX_RB>
6.15716E-7

>  <VolSurf_NCC>
0.0

>  <VolSurf_LOGP n-Oct>
3.873

>  <VolSurf_LOGP c-Hex>
-1.569

>  <VolSurf_PSA>
77.09

>  <VolSurf_HSA>
375.853

>  <VolSurf_PSAR>
0.170198

>  <VolSurf_PHSAR>
0.205107

>  <VolSurf_LgD5>
3.87296

>  <VolSurf_LgD6>
3.87257

>  <VolSurf_LgD7>
3.86874

>  <VolSurf_LgD7.5>
3.85959

>  <VolSurf_LgD8>
3.83127

>  <VolSurf_LgD9>
3.52542

>  <VolSurf_LgD10>
2.32931

>  <VolSurf_AUS7.4>
1.99243

>  <VolSurf_%FU4>
99.999

>  <VolSurf_%FU5>
99.9902

>  <VolSurf_%FU6>
99.9016

>  <VolSurf_%FU7>
99.0226

>  <VolSurf_%FU8>
90.8359

>  <VolSurf_%FU9>
44.9036

>  <VolSurf_%FU10>
2.85036

>  <ID>
190

>  <MOKAID>
191

>  <Clearance Route>
metabolic

>  <PC1>
4.01553

>  <PC2>
0.14397100000000002

$$$$
Fluorouracil, 5-
  -OEChem-08301611272D

  9  9  0     0  0  0  0  0  0999 V2000
   -0.8653   -0.5013    0.0000 F   0  0  0  0  0  0  0  0  0  0  0  0
    0.0000    0.0000    0.0000 C   0  0  0  0  0  0  0  0  0  0  0  0
   -0.0000    1.0052    0.0000 C   0  0  0  0  0  0  0  0  0  0  0  0
    0.8675    1.5129    0.0000 N   0  0  0  0  0  0  0  0  0  0  0  0
    1.7350    1.0052    0.0000 C   0  0  0  0  0  0  0  0  0  0  0  0
    2.6025    1.5026    0.0000 O   0  0  0  0  0  0  0  0  0  0  0  0
    1.7350    0.0000    0.0000 N   0  0  0  0  0  0  0  0  0  0  0  0
    0.8675   -0.4975    0.0000 C   0  0  0  0  0  0  0  0  0  0  0  0
    0.8675   -1.4975    0.0000 O   0  0  0  0  0  0  0  0  0  0  0  0
  1  2  1  0  0  0  0
  2  8  1  0  0  0  0
  2  3  2  0  0  0  0
  3  4  1  0  0  0  0
  4  5  1  0  0  0  0
  5  6  2  0  0  0  0
  5  7  1  0  0  0  0
  7  8  1  0  0  0  0
  8  9  2  0  0  0  0
M  END
>  <Name>
Fluorouracil, 5-

>  <CAS #>
51-21-8

>  <human Clearance (mL/min/kg)>
26.0

>  <Primary mechanism (metabolic, biliary or renal)>
metabolic

>  <seqId>
387.0

>  <Code (mechanism and clearance degree index)>
M1

>  < Five M1 and R1 test groups>
M1_2

>  <formamide>
0

>  <prodrug phosphates>
0

>  <VolSurf_V>
262.5

>  <VolSurf_S>
203.792

>  <VolSurf_R>
1.28808

>  <VolSurf_G>
1.04214

>  <VolSurf_IW1>
0.143647

>  <VolSurf_IW2>
0.284599

>  <VolSurf_IW3>
0.763559

>  <VolSurf_IW4>
1.54283

>  <VolSurf_ID1>
0.0667215

>  <VolSurf_ID2>
0.0973314

>  <VolSurf_ID3>
0.128693

>  <VolSurf_ID4>
0.103551

>  <VolSurf_HL1>
5.1017

>  <VolSurf_HL2>
3.36364

>  <VolSurf_A>
1.38612

>  <VolSurf_CP>
1.02854

>  <VolSurf_POL>
9.601

>  <VolSurf_MW>
130.077

>  <VolSurf_FLEX>
0.0

>  <VolSurf_FLEX_RB>
0.0

>  <VolSurf_NCC>
0.0

>  <VolSurf_LOGP n-Oct>
-0.926

>  <VolSurf_LOGP c-Hex>
-1.555

>  <VolSurf_PSA>
63.6

>  <VolSurf_HSA>
140.192

>  <VolSurf_PSAR>
0.312082

>  <VolSurf_PHSAR>
0.453662

>  <VolSurf_LgD5>
-0.926584

>  <VolSurf_LgD6>
-0.931804

>  <VolSurf_LgD7>
-0.980822

>  <VolSurf_LgD7.5>
-1.07995

>  <VolSurf_LgD8>
-1.29613

>  <VolSurf_LgD9>
-2.0843

>  <VolSurf_LgD10>
-3.04014

>  <VolSurf_AUS7.4>
1.87757

>  <VolSurf_%FU4>
99.9865

>  <VolSurf_%FU5>
99.8656

>  <VolSurf_%FU6>
98.6719

>  <VolSurf_%FU7>
88.1373

>  <VolSurf_%FU8>
42.627

>  <VolSurf_%FU9>
6.91595

>  <VolSurf_%FU10>
0.737499

>  <ID>
191

>  <MOKAID>
192

>  <Clearance Route>
uncertain

>  <PC1>
0.09726169999999999

>  <PC2>
5.4402

$$$$
Fluvastatin
  -OEChem-08301611272D

 30 32  0     1  0  0  0  0  0999 V2000
    2.3337    3.0111    0.0000 C   0  0  0  0  0  0  0  0  0  0  0  0
    3.0028    2.2680    0.0000 C   0  0  0  0  0  0  0  0  0  0  0  0
    3.9810    2.4759    0.0000 C   0  0  0  0  0  0  0  0  0  0  0  0
    2.6938    1.3169    0.0000 N   0  0  0  0  0  0  0  0  0  0  0  0
    3.2858    0.5023    0.0000 C   0  0  0  0  0  0  0  0  0  0  0  0
    4.2858    0.5024    0.0000 C   0  0  0  0  0  0  0  0  0  0  0  0
    4.7857    1.3684    0.0000 C   0  0  0  0  0  0  0  0  0  0  0  0
    5.7857    1.3685    0.0000 C   0  0  2  0  0  0  0  0  0  0  0  0
    6.2858    0.5025    0.0000 O   0  0  0  0  0  0  0  0  0  0  0  0
    6.2857    2.2345    0.0000 C   0  0  0  0  0  0  0  0  0  0  0  0
    7.2857    2.2346    0.0000 C   0  0  2  0  0  0  0  0  0  0  0  0
    7.7857    1.3686    0.0000 O   0  0  0  0  0  0  0  0  0  0  0  0
    7.7856    3.1006    0.0000 C   0  0  0  0  0  0  0  0  0  0  0  0
    8.7856    3.1007    0.0000 C   0  0  0  0  0  0  0  0  0  0  0  0
    9.2857    2.2347    0.0000 O   0  0  0  0  0  0  0  0  0  0  0  0
    9.2856    3.9668    0.0000 O   0  0  0  0  0  0  0  0  0  0  0  0
    2.6938   -0.3125    0.0000 C   0  0  0  0  0  0  0  0  0  0  0  0
    3.0028   -1.2636    0.0000 C   0  0  0  0  0  0  0  0  0  0  0  0
    3.9866   -1.4697    0.0000 C   0  0  0  0  0  0  0  0  0  0  0  0
    4.2956   -2.4208    0.0000 C   0  0  0  0  0  0  0  0  0  0  0  0
    3.6308   -3.1678    0.0000 C   0  0  0  0  0  0  0  0  0  0  0  0
    3.9440   -4.1175    0.0000 F   0  0  0  0  0  0  0  0  0  0  0  0
    2.6470   -2.9617    0.0000 C   0  0  0  0  0  0  0  0  0  0  0  0
    2.3280   -2.0085    0.0000 C   0  0  0  0  0  0  0  0  0  0  0  0
    1.7360   -0.0012    0.0000 C   0  0  0  0  0  0  0  0  0  0  0  0
    0.8680   -0.4978    0.0000 C   0  0  0  0  0  0  0  0  0  0  0  0
    0.0000    0.0000    0.0000 C   0  0  0  0  0  0  0  0  0  0  0  0
    0.0000    1.0058    0.0000 C   0  0  0  0  0  0  0  0  0  0  0  0
    0.8680    1.5138    0.0000 C   0  0  0  0  0  0  0  0  0  0  0  0
    1.7360    1.0058    0.0000 C   0  0  0  0  0  0  0  0  0  0  0  0
  1  2  1  0  0  0  0
  2  3  1  0  0  0  0
  2  4  1  0  0  0  0
  4 30  1  0  0  0  0
  4  5  1  0  0  0  0
  5  6  1  0  0  0  0
  6  7  2  0  0  0  0
  7  8  1  0  0  0  0
  8  9  1  1  0  0  0
  8 10  1  0  0  0  0
 10 11  1  0  0  0  0
 11 12  1  1  0  0  0
 11 13  1  0  0  0  0
 13 14  1  0  0  0  0
 14 15  2  0  0  0  0
 14 16  1  0  0  0  0
  5 17  2  0  0  0  0
 17 18  1  0  0  0  0
 18 24  2  0  0  0  0
 18 19  1  0  0  0  0
 19 20  2  0  0  0  0
 20 21  1  0  0  0  0
 21 22  1  0  0  0  0
 21 23  2  0  0  0  0
 23 24  1  0  0  0  0
 17 25  1  0  0  0  0
 25 30  2  0  0  0  0
 25 26  1  0  0  0  0
 26 27  2  0  0  0  0
 27 28  1  0  0  0  0
 28 29  2  0  0  0  0
 29 30  1  0  0  0  0
M  END
>  <Name>
Fluvastatin

>  <CAS #>
93957-54-1

>  <human Clearance (mL/min/kg)>
16.0

>  <Primary mechanism (metabolic, biliary or renal)>
metabolic

>  <seqId>
391.0

>  <Code (mechanism and clearance degree index)>
M1

>  < Five M1 and R1 test groups>
M1_1

>  <formamide>
0

>  <prodrug phosphates>
0

>  <VolSurf_V>
910.875

>  <VolSurf_S>
615.039

>  <VolSurf_R>
1.481

>  <VolSurf_G>
1.57459

>  <VolSurf_IW1>
0.129873

>  <VolSurf_IW2>
0.351798

>  <VolSurf_IW3>
0.792785

>  <VolSurf_IW4>
1.2849

>  <VolSurf_ID1>
0.0851542

>  <VolSurf_ID2>
0.148289

>  <VolSurf_ID3>
0.188832

>  <VolSurf_ID4>
0.2174

>  <VolSurf_HL1>
2.45617

>  <VolSurf_HL2>
1.97151

>  <VolSurf_A>
8.83121

>  <VolSurf_CP>
0.507362

>  <VolSurf_POL>
43.732

>  <VolSurf_MW>
410.458

>  <VolSurf_FLEX>
1.92451

>  <VolSurf_FLEX_RB>
0.160375

>  <VolSurf_NCC>
1.0

>  <VolSurf_LOGP n-Oct>
2.931

>  <VolSurf_LOGP c-Hex>
-0.672

>  <VolSurf_PSA>
94.99

>  <VolSurf_HSA>
520.049

>  <VolSurf_PSAR>
0.154446

>  <VolSurf_PHSAR>
0.182656

>  <VolSurf_LgD5>
1.94122

>  <VolSurf_LgD6>
0.998217

>  <VolSurf_LgD7>
0.130915

>  <VolSurf_LgD7.5>
-0.160719

>  <VolSurf_LgD8>
-0.31749

>  <VolSurf_LgD9>
-0.404274

>  <VolSurf_LgD10>
-0.41464

>  <VolSurf_AUS7.4>
0.0

>  <VolSurf_%FU4>
53.1741

>  <VolSurf_%FU5>
10.1977

>  <VolSurf_%FU6>
1.12282

>  <VolSurf_%FU7>
0.113428

>  <VolSurf_%FU8>
0.0113542

>  <VolSurf_%FU9>
0.00113536

>  <VolSurf_%FU10>
1.13363E-4

>  <ID>
192

>  <MOKAID>
193

>  <Clearance Route>
uncertain

>  <PC1>
0.264006

>  <PC2>
0.1117

$$$$
Fluvoxamine
  -OEChem-08301611272D

 22 22  0     0  0  0  0  0  0999 V2000
    0.8675    1.5027    0.0000 C   0  0  0  0  0  0  0  0  0  0  0  0
    1.7350    2.0001    0.0000 C   0  0  0  0  0  0  0  0  0  0  0  0
    1.7379    3.0001    0.0000 C   0  0  0  0  0  0  0  0  0  0  0  0
    2.6054    3.4976    0.0000 C   0  0  0  0  0  0  0  0  0  0  0  0
    2.6084    4.4976    0.0000 C   0  0  0  0  0  0  0  0  0  0  0  0
    3.4759    4.9950    0.0000 C   0  0  0  0  0  0  0  0  0  0  0  0
    3.4788    5.9950    0.0000 O   0  0  0  0  0  0  0  0  0  0  0  0
    4.3463    6.4925    0.0000 C   0  0  0  0  0  0  0  0  0  0  0  0
    2.5995    1.4976    0.0000 N   0  0  0  0  0  0  0  0  0  0  0  0
    3.4670    1.9950    0.0000 O   0  0  0  0  0  0  0  0  0  0  0  0
    4.3316    1.4925    0.0000 C   0  0  0  0  0  0  0  0  0  0  0  0
    5.1991    1.9899    0.0000 C   0  0  0  0  0  0  0  0  0  0  0  0
    6.0636    1.4874    0.0000 N   0  0  0  0  0  0  0  0  0  0  0  0
    0.8675    0.4975    0.0000 C   0  0  0  0  0  0  0  0  0  0  0  0
    0.0000    0.0000    0.0000 C   0  0  0  0  0  0  0  0  0  0  0  0
   -0.8675    0.4975    0.0000 C   0  0  0  0  0  0  0  0  0  0  0  0
   -1.7328   -0.0038    0.0000 C   0  0  0  0  0  0  0  0  0  0  0  0
   -1.2315   -0.8691    0.0000 F   0  0  0  0  0  0  0  0  0  0  0  0
   -2.2341    0.8615    0.0000 F   0  0  0  0  0  0  0  0  0  0  0  0
   -2.5981   -0.5050    0.0000 F   0  0  0  0  0  0  0  0  0  0  0  0
   -0.8675    1.5027    0.0000 C   0  0  0  0  0  0  0  0  0  0  0  0
    0.0000    2.0104    0.0000 C   0  0  0  0  0  0  0  0  0  0  0  0
  1 22  2  0  0  0  0
  1  2  1  0  0  0  0
  2  3  1  0  0  0  0
  3  4  1  0  0  0  0
  4  5  1  0  0  0  0
  5  6  1  0  0  0  0
  6  7  1  0  0  0  0
  7  8  1  0  0  0  0
  2  9  2  0  0  0  0
  9 10  1  0  0  0  0
 10 11  1  0  0  0  0
 11 12  1  0  0  0  0
 12 13  1  0  0  0  0
  1 14  1  0  0  0  0
 14 15  2  0  0  0  0
 15 16  1  0  0  0  0
 16 17  1  0  0  0  0
 17 18  1  0  0  0  0
 17 19  1  0  0  0  0
 17 20  1  0  0  0  0
 16 21  2  0  0  0  0
 21 22  1  0  0  0  0
M  END
>  <Name>
Fluvoxamine

>  <CAS #>
54739-18-3

>  <human Clearance (mL/min/kg)>
23.0

>  <Primary mechanism (metabolic, biliary or renal)>
metabolic

>  <seqId>
392.0

>  <Code (mechanism and clearance degree index)>
M1

>  < Five M1 and R1 test groups>
M1_4

>  <formamide>
0

>  <prodrug phosphates>
0

>  <VolSurf_V>
713.875

>  <VolSurf_S>
517.564

>  <VolSurf_R>
1.3793

>  <VolSurf_G>
1.55095

>  <VolSurf_IW1>
0.0734483

>  <VolSurf_IW2>
0.135632

>  <VolSurf_IW3>
0.446404

>  <VolSurf_IW4>
1.54888

>  <VolSurf_ID1>
0.0260078

>  <VolSurf_ID2>
0.0214777

>  <VolSurf_ID3>
0.0430506

>  <VolSurf_ID4>
0.0937488

>  <VolSurf_HL1>
3.52778

>  <VolSurf_HL2>
1.76647

>  <VolSurf_A>
2.79704

>  <VolSurf_CP>
2.4555

>  <VolSurf_POL>
32.158

>  <VolSurf_MW>
319.342

>  <VolSurf_FLEX>
1.75831

>  <VolSurf_FLEX_RB>
0.146526

>  <VolSurf_NCC>
1.0

>  <VolSurf_LOGP n-Oct>
3.135

>  <VolSurf_LOGP c-Hex>
2.734

>  <VolSurf_PSA>
76.3

>  <VolSurf_HSA>
441.264

>  <VolSurf_PSAR>
0.147421

>  <VolSurf_PHSAR>
0.172912

>  <VolSurf_LgD5>
0.269111

>  <VolSurf_LgD6>
0.378895

>  <VolSurf_LgD7>
0.887298

>  <VolSurf_LgD7.5>
1.30816

>  <VolSurf_LgD8>
1.76886

>  <VolSurf_LgD9>
2.61862

>  <VolSurf_LgD10>
3.04545

>  <VolSurf_AUS7.4>
0.251208

>  <VolSurf_%FU4>
4.35963E-4

>  <VolSurf_%FU5>
0.00435945

>  <VolSurf_%FU6>
0.0435774

>  <VolSurf_%FU7>
0.434072

>  <VolSurf_%FU8>
4.17752

>  <VolSurf_%FU9>
30.3604

>  <VolSurf_%FU10>
81.342

>  <ID>
193

>  <MOKAID>
194

>  <Clearance Route>
metabolic

>  <PC1>
1.45769

>  <PC2>
-0.560902

$$$$
Folinic acid
  -OEChem-08301611272D

 34 36  0     1  0  0  0  0  0999 V2000
    4.3394    1.5081    0.0000 N   0  0  0  0  0  0  0  0  0  0  0  0
    3.4735    1.0079    0.0000 C   0  0  0  0  0  0  0  0  0  0  0  0
    3.4748    0.0022    0.0000 N   0  0  0  0  0  0  0  0  0  0  0  0
    2.6038   -0.4989    0.0000 C   0  0  0  0  0  0  0  0  0  0  0  0
    2.6037   -1.4989    0.0000 O   0  0  0  0  0  0  0  0  0  0  0  0
    1.7371   -0.0000    0.0000 C   0  0  0  0  0  0  0  0  0  0  0  0
    1.7358    1.0057    0.0000 C   0  0  0  0  0  0  0  0  0  0  0  0
    0.8679    1.5135    0.0000 N   0  0  0  0  0  0  0  0  0  0  0  0
    0.0000    1.0057    0.0000 C   0  0  0  0  0  0  0  0  0  0  0  0
    0.0000    0.0000    0.0000 C   0  0  3  0  0  0  0  0  0  0  0  0
   -0.8653   -0.5012    0.0000 C   0  0  0  0  0  0  0  0  0  0  0  0
   -0.8639   -1.5012    0.0000 N   0  0  0  0  0  0  0  0  0  0  0  0
   -1.7292   -2.0025    0.0000 C   0  0  0  0  0  0  0  0  0  0  0  0
   -1.7248   -3.0076    0.0000 C   0  0  0  0  0  0  0  0  0  0  0  0
   -2.5901   -3.5089    0.0000 C   0  0  0  0  0  0  0  0  0  0  0  0
   -3.4598   -3.0152    0.0000 C   0  0  0  0  0  0  0  0  0  0  0  0
   -3.4642   -2.0100    0.0000 C   0  0  0  0  0  0  0  0  0  0  0  0
   -2.5989   -1.4986    0.0000 C   0  0  0  0  0  0  0  0  0  0  0  0
   -4.3229   -3.5203    0.0000 C   0  0  0  0  0  0  0  0  0  0  0  0
   -5.1918   -3.0253    0.0000 O   0  0  0  0  0  0  0  0  0  0  0  0
   -4.3171   -4.5202    0.0000 N   0  0  0  0  0  0  0  0  0  0  0  0
   -5.1802   -5.0253    0.0000 C   0  0  1  0  0  0  0  0  0  0  0  0
   -5.1744   -6.0253    0.0000 C   0  0  0  0  0  0  0  0  0  0  0  0
   -4.3054   -6.5202    0.0000 C   0  0  0  0  0  0  0  0  0  0  0  0
   -4.2996   -7.5202    0.0000 C   0  0  0  0  0  0  0  0  0  0  0  0
   -5.1627   -8.0252    0.0000 O   0  0  0  0  0  0  0  0  0  0  0  0
   -3.4307   -8.0151    0.0000 O   0  0  0  0  0  0  0  0  0  0  0  0
   -6.0491   -4.5303    0.0000 C   0  0  0  0  0  0  0  0  0  0  0  0
   -6.0549   -3.5303    0.0000 O   0  0  0  0  0  0  0  0  0  0  0  0
   -6.9122   -5.0354    0.0000 O   0  0  0  0  0  0  0  0  0  0  0  0
    0.8679   -0.4978    0.0000 N   0  0  0  0  0  0  0  0  0  0  0  0
    0.8676   -1.4978    0.0000 C   0  0  0  0  0  0  0  0  0  0  0  0
    1.7334   -1.9981    0.0000 O   0  0  0  0  0  0  0  0  0  0  0  0
    2.6012    1.5124    0.0000 N   0  0  0  0  0  0  0  0  0  0  0  0
  1  2  1  0  0  0  0
  2 34  1  0  0  0  0
  2  3  2  0  0  0  0
  3  4  1  0  0  0  0
  4  5  2  0  0  0  0
  4  6  1  0  0  0  0
  6 31  1  0  0  0  0
  6  7  2  0  0  0  0
  7  8  1  0  0  0  0
  8  9  1  0  0  0  0
  9 10  1  0  0  0  0
 10 11  1  0  0  0  0
 11 12  1  0  0  0  0
 12 13  1  0  0  0  0
 13 18  2  0  0  0  0
 13 14  1  0  0  0  0
 14 15  2  0  0  0  0
 15 16  1  0  0  0  0
 16 17  2  0  0  0  0
 17 18  1  0  0  0  0
 16 19  1  0  0  0  0
 19 20  2  0  0  0  0
 19 21  1  0  0  0  0
 21 22  1  0  0  0  0
 22 23  1  1  0  0  0
 23 24  1  0  0  0  0
 24 25  1  0  0  0  0
 25 26  2  0  0  0  0
 25 27  1  0  0  0  0
 22 28  1  0  0  0  0
 28 29  2  0  0  0  0
 28 30  1  0  0  0  0
 10 31  1  0  0  0  0
 31 32  1  0  0  0  0
 32 33  2  0  0  0  0
  7 34  1  0  0  0  0
M  END
>  <Name>
Folinic acid

>  <CAS #>
58-05-9

>  <human Clearance (mL/min/kg)>
5.8

>  <Primary mechanism (metabolic, biliary or renal)>
metabolic

>  <seqId>
393.0

>  <Code (mechanism and clearance degree index)>
M1

>  < Five M1 and R1 test groups>
M1_5

>  <formamide>
1

>  <prodrug phosphates>
0

>  <VolSurf_V>
924.75

>  <VolSurf_S>
632.001

>  <VolSurf_R>
1.46321

>  <VolSurf_G>
1.61557

>  <VolSurf_IW1>
0.0458373

>  <VolSurf_IW2>
0.111828

>  <VolSurf_IW3>
0.331841

>  <VolSurf_IW4>
0.650907

>  <VolSurf_ID1>
0.103197

>  <VolSurf_ID2>
0.184523

>  <VolSurf_ID3>
0.263345

>  <VolSurf_ID4>
0.312741

>  <VolSurf_HL1>
5.10921

>  <VolSurf_HL2>
4.16615

>  <VolSurf_A>
6.79073

>  <VolSurf_CP>
0.224802

>  <VolSurf_POL>
43.797

>  <VolSurf_MW>
471.423

>  <VolSurf_FLEX>
2.72105

>  <VolSurf_FLEX_RB>
0.247368

>  <VolSurf_NCC>
2.0

>  <VolSurf_LOGP n-Oct>
-2.072

>  <VolSurf_LOGP c-Hex>
-9.0

>  <VolSurf_PSA>
233.23

>  <VolSurf_HSA>
398.771

>  <VolSurf_PSAR>
0.369034

>  <VolSurf_PHSAR>
0.584872

>  <VolSurf_LgD5>
-4.90057

>  <VolSurf_LgD6>
-6.00089

>  <VolSurf_LgD7>
-7.08787

>  <VolSurf_LgD7.5>
-7.5788

>  <VolSurf_LgD8>
-8.02593

>  <VolSurf_LgD9>
-8.59134

>  <VolSurf_LgD10>
-8.59949

>  <VolSurf_AUS7.4>
0.0

>  <VolSurf_%FU4>
0.0

>  <VolSurf_%FU5>
0.0

>  <VolSurf_%FU6>
0.0

>  <VolSurf_%FU7>
0.0

>  <VolSurf_%FU8>
0.0

>  <VolSurf_%FU9>
0.0

>  <VolSurf_%FU10>
0.0

>  <ID>
194

>  <MOKAID>
195

>  <Clearance Route>
renal

>  <PC1>
-6.70984

>  <PC2>
0.29430500000000004

$$$$
Fosaprepitant
  -OEChem-08301611272D

 41 44  0     1  0  0  0  0  0999 V2000
   -3.3196   -2.3361    0.0000 N   0  0  0  0  0  0  0  0  0  0  0  0
   -2.6480   -1.5890    0.0000 N   0  0  0  0  0  0  0  0  0  0  0  0
   -1.7335   -1.9975    0.0000 C   0  0  0  0  0  0  0  0  0  0  0  0
   -1.8370   -2.9936    0.0000 N   0  0  0  0  0  0  0  0  0  0  0  0
   -2.8154   -3.2002    0.0000 C   0  0  0  0  0  0  0  0  0  0  0  0
   -3.2206   -4.1144    0.0000 O   0  0  0  0  0  0  0  0  0  0  0  0
   -0.8675   -1.4975    0.0000 C   0  0  0  0  0  0  0  0  0  0  0  0
   -0.8675   -0.4975    0.0000 N   0  0  2  0  0  0  0  0  0  0  0  0
    0.0000    0.0000    0.0000 C   0  0  2  0  0  0  0  0  0  0  0  0
   -0.0000    1.0052    0.0000 C   0  0  2  0  0  0  0  0  0  0  0  0
   -0.8675    1.5129    0.0000 O   0  0  0  0  0  0  0  0  0  0  0  0
   -1.7350    1.0052    0.0000 C   0  0  0  0  0  0  0  0  0  0  0  0
   -1.7350   -0.0000    0.0000 C   0  0  0  0  0  0  0  0  0  0  0  0
    0.8675    1.5026    0.0000 O   0  0  0  0  0  0  0  0  0  0  0  0
    0.8704    2.5026    0.0000 C   0  0  2  0  0  0  0  0  0  0  0  0
    0.0059    3.0052    0.0000 C   0  0  0  0  0  0  0  0  0  0  0  0
    1.7379    3.0001    0.0000 C   0  0  0  0  0  0  0  0  0  0  0  0
    2.6055    2.4924    0.0000 C   0  0  0  0  0  0  0  0  0  0  0  0
    3.4730    2.9898    0.0000 C   0  0  0  0  0  0  0  0  0  0  0  0
    3.4818    3.9898    0.0000 C   0  0  0  0  0  0  0  0  0  0  0  0
    2.6143    4.4975    0.0000 C   0  0  0  0  0  0  0  0  0  0  0  0
    1.7379    4.0052    0.0000 C   0  0  0  0  0  0  0  0  0  0  0  0
    2.6231    5.4975    0.0000 C   0  0  0  0  0  0  0  0  0  0  0  0
    1.6232    5.5063    0.0000 F   0  0  0  0  0  0  0  0  0  0  0  0
    3.6231    5.4886    0.0000 F   0  0  0  0  0  0  0  0  0  0  0  0
    2.6320    6.4974    0.0000 F   0  0  0  0  0  0  0  0  0  0  0  0
    4.3361    2.4847    0.0000 C   0  0  0  0  0  0  0  0  0  0  0  0
    4.8412    3.3477    0.0000 F   0  0  0  0  0  0  0  0  0  0  0  0
    3.8310    1.6216    0.0000 F   0  0  0  0  0  0  0  0  0  0  0  0
    5.1992    1.9796    0.0000 F   0  0  0  0  0  0  0  0  0  0  0  0
    0.8653   -0.5013    0.0000 C   0  0  0  0  0  0  0  0  0  0  0  0
    1.7351    0.0026    0.0000 C   0  0  0  0  0  0  0  0  0  0  0  0
    2.6004   -0.4986    0.0000 C   0  0  0  0  0  0  0  0  0  0  0  0
    2.6048   -1.4986    0.0000 C   0  0  0  0  0  0  0  0  0  0  0  0
    1.7351   -2.0025    0.0000 C   0  0  0  0  0  0  0  0  0  0  0  0
    0.8609   -1.5064    0.0000 C   0  0  0  0  0  0  0  0  0  0  0  0
    3.4723   -1.9960    0.0000 F   0  0  0  0  0  0  0  0  0  0  0  0
   -4.3144   -2.2343    0.0000 P   0  0  0  0  0  0  0  0  0  0  0  0
   -5.3092   -2.1325    0.0000 O   0  0  0  0  0  0  0  0  0  0  0  0
   -4.4162   -3.2291    0.0000 O   0  0  0  0  0  0  0  0  0  0  0  0
   -4.2126   -1.2395    0.0000 O   0  0  0  0  0  0  0  0  0  0  0  0
  1  5  1  0  0  0  0
  1  2  1  0  0  0  0
  2  3  1  0  0  0  0
  3  4  2  0  0  0  0
  4  5  1  0  0  0  0
  5  6  2  0  0  0  0
  3  7  1  0  0  0  0
  8  7  1  1  0  0  0
  8 13  1  0  0  0  0
  8  9  1  0  0  0  0
  9 10  1  0  0  0  0
 10 11  1  0  0  0  0
 11 12  1  0  0  0  0
 12 13  1  0  0  0  0
 10 14  1  6  0  0  0
 14 15  1  0  0  0  0
 15 16  1  6  0  0  0
 15 17  1  0  0  0  0
 17 22  2  0  0  0  0
 17 18  1  0  0  0  0
 18 19  2  0  0  0  0
 19 20  1  0  0  0  0
 20 21  2  0  0  0  0
 21 22  1  0  0  0  0
 21 23  1  0  0  0  0
 23 24  1  0  0  0  0
 23 25  1  0  0  0  0
 23 26  1  0  0  0  0
 19 27  1  0  0  0  0
 27 28  1  0  0  0  0
 27 29  1  0  0  0  0
 27 30  1  0  0  0  0
  9 31  1  6  0  0  0
 31 36  2  0  0  0  0
 31 32  1  0  0  0  0
 32 33  2  0  0  0  0
 33 34  1  0  0  0  0
 34 35  2  0  0  0  0
 35 36  1  0  0  0  0
 34 37  1  0  0  0  0
  1 38  1  0  0  0  0
 38 39  2  0  0  0  0
 38 40  1  0  0  0  0
 38 41  1  0  0  0  0
M  END
>  <Name>
Fosaprepitant

>  <CAS #>
172673-20-0

>  <human Clearance (mL/min/kg)>
18.6

>  <Primary mechanism (metabolic, biliary or renal)>
metabolic

>  <seqId>
395.0

>  <Code (mechanism and clearance degree index)>
M1

>  < Five M1 and R1 test groups>
M1_5

>  <formamide>
0

>  <prodrug phosphates>
1

>  <VolSurf_V>
1060.5

>  <VolSurf_S>
696.051

>  <VolSurf_R>
1.52359

>  <VolSurf_G>
1.62826

>  <VolSurf_IW1>
0.0615787

>  <VolSurf_IW2>
0.107602

>  <VolSurf_IW3>
0.349664

>  <VolSurf_IW4>
0.739766

>  <VolSurf_ID1>
0.0434128

>  <VolSurf_ID2>
0.102225

>  <VolSurf_ID3>
0.145559

>  <VolSurf_ID4>
0.18871

>  <VolSurf_HL1>
33.6429

>  <VolSurf_HL2>
22.1667

>  <VolSurf_A>
5.27871

>  <VolSurf_CP>
0.0485141

>  <VolSurf_POL>
51.519

>  <VolSurf_MW>
611.383

>  <VolSurf_FLEX>
3.29026

>  <VolSurf_FLEX_RB>
0.329026

>  <VolSurf_NCC>
2.0

>  <VolSurf_LOGP n-Oct>
2.661

>  <VolSurf_LOGP c-Hex>
0.759

>  <VolSurf_PSA>
127.82

>  <VolSurf_HSA>
568.231

>  <VolSurf_PSAR>
0.183636

>  <VolSurf_PHSAR>
0.224944

>  <VolSurf_LgD5>
-0.318876

>  <VolSurf_LgD6>
-0.901523

>  <VolSurf_LgD7>
-1.66913

>  <VolSurf_LgD7.5>
-2.24528

>  <VolSurf_LgD8>
-2.85966

>  <VolSurf_LgD9>
-3.59872

>  <VolSurf_LgD10>
-3.73852

>  <VolSurf_AUS7.4>
0.0

>  <VolSurf_%FU4>
0.0

>  <VolSurf_%FU5>
0.0

>  <VolSurf_%FU6>
0.0

>  <VolSurf_%FU7>
0.0

>  <VolSurf_%FU8>
0.0

>  <VolSurf_%FU9>
0.0

>  <VolSurf_%FU10>
0.0

>  <ID>
195

>  <MOKAID>
196

>  <Clearance Route>
possible billary

>  <PC1>
-2.0482299999999998

>  <PC2>
-1.9492599999999998

$$$$
Foscarnet
  -OEChem-08301611272D

  7  6  0     0  0  0  0  0  0999 V2000
    0.0000    0.0000    0.0000 O   0  0  0  0  0  0  0  0  0  0  0  0
    1.0000    0.0000    0.0000 C   0  0  0  0  0  0  0  0  0  0  0  0
    1.5000   -0.8660    0.0000 O   0  0  0  0  0  0  0  0  0  0  0  0
    1.5000    0.8660    0.0000 P   0  0  0  0  0  0  0  0  0  0  0  0
    2.0000    1.7321    0.0000 O   0  0  0  0  0  0  0  0  0  0  0  0
    0.6340    1.3660    0.0000 O   0  0  0  0  0  0  0  0  0  0  0  0
    2.3660    0.3660    0.0000 O   0  0  0  0  0  0  0  0  0  0  0  0
  1  2  1  0  0  0  0
  2  3  2  0  0  0  0
  2  4  1  0  0  0  0
  4  5  2  0  0  0  0
  4  6  1  0  0  0  0
  4  7  1  0  0  0  0
M  END
>  <Name>
Foscarnet

>  <CAS #>
4428-95-9

>  <human Clearance (mL/min/kg)>
2.1

>  <Primary mechanism (metabolic, biliary or renal)>
renal

>  <seqId>
396.0

>  <Code (mechanism and clearance degree index)>
R1

>  < Five M1 and R1 test groups>
R1_4

>  <formamide>
0

>  <prodrug phosphates>
0

>  <VolSurf_V>
248.125

>  <VolSurf_S>
207.289

>  <VolSurf_R>
1.197

>  <VolSurf_G>
1.13101

>  <VolSurf_IW1>
0.0834508

>  <VolSurf_IW2>
0.105539

>  <VolSurf_IW3>
0.322714

>  <VolSurf_IW4>
2.38743

>  <VolSurf_ID1>
0.0

>  <VolSurf_ID2>
0.0

>  <VolSurf_ID3>
0.0

>  <VolSurf_ID4>
0.0

>  <VolSurf_HL1>
357.5

>  <VolSurf_HL2>
171.0

>  <VolSurf_A>
0.0

>  <VolSurf_CP>
0.0

>  <VolSurf_POL>
10.119

>  <VolSurf_MW>
122.981

>  <VolSurf_FLEX>
0.236137

>  <VolSurf_FLEX_RB>
0.236137

>  <VolSurf_NCC>
2.0

>  <VolSurf_LOGP n-Oct>
-1.226

>  <VolSurf_LOGP c-Hex>
-4.511

>  <VolSurf_PSA>
97.33

>  <VolSurf_HSA>
109.959

>  <VolSurf_PSAR>
0.469538

>  <VolSurf_PHSAR>
0.885149

>  <VolSurf_LgD5>
-6.17176

>  <VolSurf_LgD6>
-6.92181

>  <VolSurf_LgD7>
-7.46858

>  <VolSurf_LgD7.5>
-7.57891

>  <VolSurf_LgD8>
-7.62138

>  <VolSurf_LgD9>
-7.64049

>  <VolSurf_LgD10>
-7.64245

>  <VolSurf_AUS7.4>
0.0

>  <VolSurf_%FU4>
0.005853

>  <VolSurf_%FU5>
5.8058E-5

>  <VolSurf_%FU6>
2.02541E-7

>  <VolSurf_%FU7>
2.67427E-10

>  <VolSurf_%FU8>
2.76254E-13

>  <VolSurf_%FU9>
2.77169E-16

>  <VolSurf_%FU10>
2.77261E-19

>  <ID>
196

>  <MOKAID>
197

>  <Clearance Route>
renal

>  <PC1>
-6.85164

>  <PC2>
4.709980000000001

$$$$
Fosfluconazole
  -OEChem-08301611272D

 26 28  0     0  0  0  0  0  0999 V2000
    3.5378    1.6129    0.0000 O   0  0  0  0  0  0  0  0  0  0  0  0
    2.6725    1.1116    0.0000 P   0  0  0  0  0  0  0  0  0  0  0  0
    3.1739    0.2463    0.0000 O   0  0  0  0  0  0  0  0  0  0  0  0
    1.8073    0.6103    0.0000 O   0  0  0  0  0  0  0  0  0  0  0  0
    2.1712    1.9769    0.0000 O   0  0  0  0  0  0  0  0  0  0  0  0
    1.6699    2.8421    0.0000 C   0  0  0  0  0  0  0  0  0  0  0  0
    0.8046    2.3408    0.0000 C   0  0  0  0  0  0  0  0  0  0  0  0
    0.8073    0.5908    0.0000 N   0  0  0  0  0  0  0  0  0  0  0  0
    0.0000    0.0000    0.0000 C   0  0  0  0  0  0  0  0  0  0  0  0
    0.3065   -0.9518    0.0000 N   0  0  0  0  0  0  0  0  0  0  0  0
    1.3080   -0.9518    0.0000 C   0  0  0  0  0  0  0  0  0  0  0  0
    1.6198   -0.0000    0.0000 N   0  0  0  0  0  0  0  0  0  0  0  0
    2.5351    3.3434    0.0000 C   0  0  0  0  0  0  0  0  0  0  0  0
    4.0520    2.4708    0.0000 N   0  0  0  0  0  0  0  0  0  0  0  0
    4.9661    2.8773    0.0000 C   0  0  0  0  0  0  0  0  0  0  0  0
    5.6394    2.1380    0.0000 N   0  0  0  0  0  0  0  0  0  0  0  0
    5.1413    1.2692    0.0000 C   0  0  0  0  0  0  0  0  0  0  0  0
    4.1605    1.4720    0.0000 N   0  0  0  0  0  0  0  0  0  0  0  0
    1.1686    3.7074    0.0000 C   0  0  0  0  0  0  0  0  0  0  0  0
    1.6660    4.5749    0.0000 C   0  0  0  0  0  0  0  0  0  0  0  0
    1.1684    5.4424    0.0000 C   0  0  0  0  0  0  0  0  0  0  0  0
    0.1632    5.4423    0.0000 C   0  0  0  0  0  0  0  0  0  0  0  0
   -0.3343    6.3098    0.0000 F   0  0  0  0  0  0  0  0  0  0  0  0
   -0.3444    4.5748    0.0000 C   0  0  0  0  0  0  0  0  0  0  0  0
    0.1634    3.7073    0.0000 C   0  0  0  0  0  0  0  0  0  0  0  0
   -0.3340    2.8398    0.0000 F   0  0  0  0  0  0  0  0  0  0  0  0
  1  2  1  0  0  0  0
  2  3  2  0  0  0  0
  2  4  1  0  0  0  0
  2  5  1  0  0  0  0
  5  6  1  0  0  0  0
  6  7  1  0  0  0  0
  7  8  1  0  0  0  0
  8 12  1  0  0  0  0
  8  9  1  0  0  0  0
  9 10  2  0  0  0  0
 10 11  1  0  0  0  0
 11 12  2  0  0  0  0
  6 13  1  0  0  0  0
 13 14  1  0  0  0  0
 14 18  1  0  0  0  0
 14 15  1  0  0  0  0
 15 16  2  0  0  0  0
 16 17  1  0  0  0  0
 17 18  2  0  0  0  0
  6 19  1  0  0  0  0
 19 25  2  0  0  0  0
 19 20  1  0  0  0  0
 20 21  2  0  0  0  0
 21 22  1  0  0  0  0
 22 23  1  0  0  0  0
 22 24  2  0  0  0  0
 24 25  1  0  0  0  0
 25 26  1  0  0  0  0
M  END
>  <Name>
Fosfluconazole

>  <CAS #>
194798-83-9

>  <human Clearance (mL/min/kg)>
1.3

>  <Primary mechanism (metabolic, biliary or renal)>
metabolic

>  <seqId>
397.0

>  <Code (mechanism and clearance degree index)>
M1

>  < Five M1 and R1 test groups>
M1_5

>  <formamide>
0

>  <prodrug phosphates>
1

>  <VolSurf_V>
687.5

>  <VolSurf_S>
458.299

>  <VolSurf_R>
1.50011

>  <VolSurf_G>
1.34191

>  <VolSurf_IW1>
0.0421705

>  <VolSurf_IW2>
0.0874526

>  <VolSurf_IW3>
0.26316

>  <VolSurf_IW4>
0.742678

>  <VolSurf_ID1>
0.0678041

>  <VolSurf_ID2>
0.112659

>  <VolSurf_ID3>
0.153877

>  <VolSurf_ID4>
0.277342

>  <VolSurf_HL1>
10.4364

>  <VolSurf_HL2>
6.70909

>  <VolSurf_A>
2.91149

>  <VolSurf_CP>
0.205248

>  <VolSurf_POL>
36.27

>  <VolSurf_MW>
384.235

>  <VolSurf_FLEX>
2.30509

>  <VolSurf_FLEX_RB>
0.329299

>  <VolSurf_NCC>
1.0

>  <VolSurf_LOGP n-Oct>
-0.786

>  <VolSurf_LOGP c-Hex>
-6.03

>  <VolSurf_PSA>
127.78

>  <VolSurf_HSA>
330.519

>  <VolSurf_PSAR>
0.278814

>  <VolSurf_PHSAR>
0.386604

>  <VolSurf_LgD5>
-4.10392

>  <VolSurf_LgD6>
-4.42174

>  <VolSurf_LgD7>
-4.99986

>  <VolSurf_LgD7.5>
-5.37936

>  <VolSurf_LgD8>
-5.70005

>  <VolSurf_LgD9>
-5.98719

>  <VolSurf_LgD10>
-6.03086

>  <VolSurf_AUS7.4>
0.0

>  <VolSurf_%FU4>
0.0

>  <VolSurf_%FU5>
0.0

>  <VolSurf_%FU6>
0.0

>  <VolSurf_%FU7>
0.0

>  <VolSurf_%FU8>
0.0

>  <VolSurf_%FU9>
0.0

>  <VolSurf_%FU10>
0.0

>  <ID>
197

>  <MOKAID>
198

>  <Clearance Route>
renal

>  <PC1>
-4.592219999999999

>  <PC2>
1.28726

$$$$
Fosfomycin
  -OEChem-08301611272D

  8  8  0     1  0  0  0  0  0999 V2000
   -0.8658   -0.5005    0.0000 C   0  0  0  0  0  0  0  0  0  0  0  0
    0.0000    0.0000    0.0000 C   0  0  2  0  0  0  0  0  0  0  0  0
    0.5000    0.8682    0.0000 O   0  0  0  0  0  0  0  0  0  0  0  0
    1.0000    0.0000    0.0000 C   0  0  2  0  0  0  0  0  0  0  0  0
    1.8658   -0.5005    0.0000 P   0  0  0  0  0  0  0  0  0  0  0  0
    2.7315   -1.0009    0.0000 O   0  0  0  0  0  0  0  0  0  0  0  0
    2.3662    0.3653    0.0000 O   0  0  0  0  0  0  0  0  0  0  0  0
    1.3653   -1.3662    0.0000 O   0  0  0  0  0  0  0  0  0  0  0  0
  2  1  1  6  0  0  0
  2  4  1  0  0  0  0
  2  3  1  0  0  0  0
  3  4  1  0  0  0  0
  4  5  1  6  0  0  0
  5  6  2  0  0  0  0
  5  7  1  0  0  0  0
  5  8  1  0  0  0  0
M  END
>  <Name>
Fosfomycin

>  <CAS #>
23155-02-4

>  <human Clearance (mL/min/kg)>
2.0

>  <Primary mechanism (metabolic, biliary or renal)>
renal

>  <seqId>
398.0

>  <Code (mechanism and clearance degree index)>
R1

>  < Five M1 and R1 test groups>
R1_2

>  <formamide>
0

>  <prodrug phosphates>
0

>  <VolSurf_V>
297.5

>  <VolSurf_S>
232.62

>  <VolSurf_R>
1.27891

>  <VolSurf_G>
1.12139

>  <VolSurf_IW1>
0.203239

>  <VolSurf_IW2>
0.335911

>  <VolSurf_IW3>
0.629993

>  <VolSurf_IW4>
1.86053

>  <VolSurf_ID1>
0.159354

>  <VolSurf_ID2>
0.397353

>  <VolSurf_ID3>
0.0

>  <VolSurf_ID4>
0.0

>  <VolSurf_HL1>
239.25

>  <VolSurf_HL2>
96.0

>  <VolSurf_A>
6.62585

>  <VolSurf_CP>
0.00161893

>  <VolSurf_POL>
13.536

>  <VolSurf_MW>
136.043

>  <VolSurf_FLEX>
0.415299

>  <VolSurf_FLEX_RB>
0.20765

>  <VolSurf_NCC>
1.0

>  <VolSurf_LOGP n-Oct>
-0.622

>  <VolSurf_LOGP c-Hex>
-1.007

>  <VolSurf_PSA>
63.74

>  <VolSurf_HSA>
168.88

>  <VolSurf_PSAR>
0.274009

>  <VolSurf_PHSAR>
0.377427

>  <VolSurf_LgD5>
-4.28567

>  <VolSurf_LgD6>
-4.88592

>  <VolSurf_LgD7>
-5.56955

>  <VolSurf_LgD7.5>
-5.7507

>  <VolSurf_LgD8>
-5.8297

>  <VolSurf_LgD9>
-5.86757

>  <VolSurf_LgD10>
-5.87155

>  <VolSurf_AUS7.4>
0.0

>  <VolSurf_%FU4>
0.013859

>  <VolSurf_%FU5>
9.49181E-4

>  <VolSurf_%FU6>
2.28608E-5

>  <VolSurf_%FU7>
2.66085E-7

>  <VolSurf_%FU8>
2.70519E-9

>  <VolSurf_%FU9>
2.70971E-11

>  <VolSurf_%FU10>
2.71016E-13

>  <ID>
198

>  <MOKAID>
199

>  <Clearance Route>
renal

>  <PC1>
-4.44516

>  <PC2>
7.1414800000000005

$$$$
Fosphenytoin
  -OEChem-08301611272D

 25 27  0     0  0  0  0  0  0999 V2000
    0.0000    0.0000    0.0000 C   0  0  0  0  0  0  0  0  0  0  0  0
    0.1036   -0.9946    0.0000 C   0  0  0  0  0  0  0  0  0  0  0  0
    1.0228   -1.4016    0.0000 C   0  0  0  0  0  0  0  0  0  0  0  0
    1.1265   -2.3962    0.0000 C   0  0  0  0  0  0  0  0  0  0  0  0
    0.3204   -2.9880    0.0000 C   0  0  0  0  0  0  0  0  0  0  0  0
   -0.5988   -2.5811    0.0000 C   0  0  0  0  0  0  0  0  0  0  0  0
   -0.7118   -1.5823    0.0000 C   0  0  0  0  0  0  0  0  0  0  0  0
   -1.7124   -0.3608    0.0000 C   0  0  0  0  0  0  0  0  0  0  0  0
   -2.0219   -1.3172    0.0000 C   0  0  0  0  0  0  0  0  0  0  0  0
   -3.0004   -1.5234    0.0000 C   0  0  0  0  0  0  0  0  0  0  0  0
   -3.6726   -0.7830    0.0000 C   0  0  0  0  0  0  0  0  0  0  0  0
   -3.3631    0.1734    0.0000 C   0  0  0  0  0  0  0  0  0  0  0  0
   -2.3814    0.3893    0.0000 C   0  0  0  0  0  0  0  0  0  0  0  0
   -0.3065    0.9519    0.0000 C   0  0  0  0  0  0  0  0  0  0  0  0
   -1.2577    1.2606    0.0000 O   0  0  0  0  0  0  0  0  0  0  0  0
    0.5007    1.5426    0.0000 N   0  0  0  0  0  0  0  0  0  0  0  0
    1.3131    0.9519    0.0000 C   0  0  0  0  0  0  0  0  0  0  0  0
    2.2646    1.2597    0.0000 O   0  0  0  0  0  0  0  0  0  0  0  0
    1.0014    0.0000    0.0000 N   0  0  0  0  0  0  0  0  0  0  0  0
    0.4992    2.5426    0.0000 C   0  0  0  0  0  0  0  0  0  0  0  0
   -0.3676    3.0413    0.0000 O   0  0  0  0  0  0  0  0  0  0  0  0
   -0.3691    4.0413    0.0000 P   0  0  0  0  0  0  0  0  0  0  0  0
   -0.3707    5.0413    0.0000 O   0  0  0  0  0  0  0  0  0  0  0  0
   -1.3691    4.0397    0.0000 O   0  0  0  0  0  0  0  0  0  0  0  0
    0.6309    4.0428    0.0000 O   0  0  0  0  0  0  0  0  0  0  0  0
  1 19  1  0  0  0  0
  1  2  1  0  0  0  0
  2  7  2  0  0  0  0
  2  3  1  0  0  0  0
  3  4  2  0  0  0  0
  4  5  1  0  0  0  0
  5  6  2  0  0  0  0
  6  7  1  0  0  0  0
  1  8  1  0  0  0  0
  8 13  2  0  0  0  0
  8  9  1  0  0  0  0
  9 10  2  0  0  0  0
 10 11  1  0  0  0  0
 11 12  2  0  0  0  0
 12 13  1  0  0  0  0
  1 14  1  0  0  0  0
 14 15  2  0  0  0  0
 14 16  1  0  0  0  0
 16 17  1  0  0  0  0
 17 18  2  0  0  0  0
 17 19  1  0  0  0  0
 16 20  1  0  0  0  0
 20 21  1  0  0  0  0
 21 22  1  0  0  0  0
 22 23  2  0  0  0  0
 22 24  1  0  0  0  0
 22 25  1  0  0  0  0
M  END
>  <Name>
Fosphenytoin

>  <CAS #>
93390-81-9

>  <human Clearance (mL/min/kg)>
3.5

>  <Primary mechanism (metabolic, biliary or renal)>
metabolic

>  <seqId>
400.0

>  <Code (mechanism and clearance degree index)>
M1

>  < Five M1 and R1 test groups>
M1_5

>  <formamide>
0

>  <prodrug phosphates>
1

>  <VolSurf_V>
744.125

>  <VolSurf_S>
519.932

>  <VolSurf_R>
1.4312

>  <VolSurf_G>
1.49813

>  <VolSurf_IW1>
0.151645

>  <VolSurf_IW2>
0.340938

>  <VolSurf_IW3>
0.596213

>  <VolSurf_IW4>
0.523238

>  <VolSurf_ID1>
0.0939378

>  <VolSurf_ID2>
0.18378

>  <VolSurf_ID3>
0.260826

>  <VolSurf_ID4>
0.328184

>  <VolSurf_HL1>
5.53872

>  <VolSurf_HL2>
5.12571

>  <VolSurf_A>
6.84041

>  <VolSurf_CP>
0.23335

>  <VolSurf_POL>
37.235

>  <VolSurf_MW>
360.258

>  <VolSurf_FLEX>
1.53545

>  <VolSurf_FLEX_RB>
0.30709

>  <VolSurf_NCC>
1.0

>  <VolSurf_LOGP n-Oct>
1.678

>  <VolSurf_LOGP c-Hex>
-2.339

>  <VolSurf_PSA>
109.62

>  <VolSurf_HSA>
410.312

>  <VolSurf_PSAR>
0.210835

>  <VolSurf_PHSAR>
0.267162

>  <VolSurf_LgD5>
-1.81378

>  <VolSurf_LgD6>
-2.1999

>  <VolSurf_LgD7>
-2.93661

>  <VolSurf_LgD7.5>
-3.29223

>  <VolSurf_LgD8>
-3.58276

>  <VolSurf_LgD9>
-4.1766

>  <VolSurf_LgD10>
-4.62241

>  <VolSurf_AUS7.4>
0.0

>  <VolSurf_%FU4>
0.0522595

>  <VolSurf_%FU5>
0.00462017

>  <VolSurf_%FU6>
2.13074E-4

>  <VolSurf_%FU7>
3.21834E-6

>  <VolSurf_%FU8>
2.47616E-8

>  <VolSurf_%FU9>
6.65294E-11

>  <VolSurf_%FU10>
7.99212E-14

>  <ID>
199

>  <MOKAID>
200

>  <Clearance Route>
renal

>  <PC1>
-2.49804

>  <PC2>
2.18815

$$$$
Furosemide
  -OEChem-08301611272D

 21 22  0     0  0  0  0  0  0999 V2000
    7.2310    3.7942    0.0000 N   0  0  0  0  0  0  0  0  0  0  0  0
    6.2809    3.4823    0.0000 S   0  0  0  0  0  0  0  0  0  0  0  0
    6.5927    2.5322    0.0000 O   0  0  0  0  0  0  0  0  0  0  0  0
    5.9690    4.4325    0.0000 O   0  0  0  0  0  0  0  0  0  0  0  0
    5.3307    3.1705    0.0000 C   0  0  0  0  0  0  0  0  0  0  0  0
    4.5846    3.8363    0.0000 C   0  0  0  0  0  0  0  0  0  0  0  0
    3.6331    3.5286    0.0000 C   0  0  0  0  0  0  0  0  0  0  0  0
    2.8899    4.1977    0.0000 C   0  0  0  0  0  0  0  0  0  0  0  0
    3.0977    5.1759    0.0000 O   0  0  0  0  0  0  0  0  0  0  0  0
    1.9389    3.8886    0.0000 O   0  0  0  0  0  0  0  0  0  0  0  0
    3.4256    2.5451    0.0000 C   0  0  0  0  0  0  0  0  0  0  0  0
    2.4741    2.2374    0.0000 N   0  0  0  0  0  0  0  0  0  0  0  0
    2.2648    1.2596    0.0000 C   0  0  0  0  0  0  0  0  0  0  0  0
    1.3133    0.9519    0.0000 C   0  0  0  0  0  0  0  0  0  0  0  0
    0.5008    1.5428    0.0000 O   0  0  0  0  0  0  0  0  0  0  0  0
   -0.3065    0.9519    0.0000 C   0  0  0  0  0  0  0  0  0  0  0  0
    0.0000    0.0000    0.0000 C   0  0  0  0  0  0  0  0  0  0  0  0
    1.0015    0.0000    0.0000 C   0  0  0  0  0  0  0  0  0  0  0  0
    4.1696    1.8692    0.0000 C   0  0  0  0  0  0  0  0  0  0  0  0
    5.1232    2.1869    0.0000 C   0  0  0  0  0  0  0  0  0  0  0  0
    5.8694    1.5211    0.0000 Cl  0  0  0  0  0  0  0  0  0  0  0  0
  1  2  1  0  0  0  0
  2  3  2  0  0  0  0
  2  4  2  0  0  0  0
  2  5  1  0  0  0  0
  5 20  2  0  0  0  0
  5  6  1  0  0  0  0
  6  7  2  0  0  0  0
  7  8  1  0  0  0  0
  8  9  2  0  0  0  0
  8 10  1  0  0  0  0
  7 11  1  0  0  0  0
 11 12  1  0  0  0  0
 12 13  1  0  0  0  0
 13 14  1  0  0  0  0
 14 18  2  0  0  0  0
 14 15  1  0  0  0  0
 15 16  1  0  0  0  0
 16 17  2  0  0  0  0
 17 18  1  0  0  0  0
 11 19  2  0  0  0  0
 19 20  1  0  0  0  0
 20 21  1  0  0  0  0
M  END
>  <Name>
Furosemide

>  <CAS #>
54-31-9

>  <human Clearance (mL/min/kg)>
1.6

>  <Primary mechanism (metabolic, biliary or renal)>
renal

>  <seqId>
404.0

>  <Code (mechanism and clearance degree index)>
R1

>  < Five M1 and R1 test groups>
R1_2

>  <formamide>
0

>  <prodrug phosphates>
0

>  <VolSurf_V>
639.125

>  <VolSurf_S>
449.775

>  <VolSurf_R>
1.42099

>  <VolSurf_G>
1.4034

>  <VolSurf_IW1>
0.148761

>  <VolSurf_IW2>
0.353357

>  <VolSurf_IW3>
0.727728

>  <VolSurf_IW4>
1.24257

>  <VolSurf_ID1>
0.08985

>  <VolSurf_ID2>
0.120012

>  <VolSurf_ID3>
0.162658

>  <VolSurf_ID4>
0.176348

>  <VolSurf_HL1>
3.46732

>  <VolSurf_HL2>
2.60795

>  <VolSurf_A>
5.78431

>  <VolSurf_CP>
0.47499

>  <VolSurf_POL>
28.932

>  <VolSurf_MW>
329.736

>  <VolSurf_FLEX>
1.55849

>  <VolSurf_FLEX_RB>
0.259748

>  <VolSurf_NCC>
1.0

>  <VolSurf_LOGP n-Oct>
1.782

>  <VolSurf_LOGP c-Hex>
-1.181

>  <VolSurf_PSA>
139.472

>  <VolSurf_HSA>
310.302

>  <VolSurf_PSAR>
0.310094

>  <VolSurf_PHSAR>
0.449473

>  <VolSurf_LgD5>
0.480807

>  <VolSurf_LgD6>
-0.470872

>  <VolSurf_LgD7>
-1.25539

>  <VolSurf_LgD7.5>
-1.46921

>  <VolSurf_LgD8>
-1.5674

>  <VolSurf_LgD9>
-1.6253

>  <VolSurf_LgD10>
-1.7181

>  <VolSurf_AUS7.4>
0.0

>  <VolSurf_%FU4>
34.2939

>  <VolSurf_%FU5>
4.96046

>  <VolSurf_%FU6>
0.519214

>  <VolSurf_%FU7>
0.052153

>  <VolSurf_%FU8>
0.00520559

>  <VolSurf_%FU9>
5.08724E-4

>  <VolSurf_%FU10>
4.14338E-5

>  <ID>
200

>  <MOKAID>
201

>  <Clearance Route>
renal

>  <PC1>
-1.21977

>  <PC2>
2.2373

$$$$
Gabapentin
  -OEChem-08301611272D

 12 12  0     0  0  0  0  0  0999 V2000
    0.5734    3.2096    0.0000 N   0  0  0  0  0  0  0  0  0  0  0  0
    1.2132    2.4410    0.0000 C   0  0  0  0  0  0  0  0  0  0  0  0
    0.8675    1.5027    0.0000 C   0  0  0  0  0  0  0  0  0  0  0  0
    1.8520    1.3271    0.0000 C   0  0  0  0  0  0  0  0  0  0  0  0
    2.4963    2.0919    0.0000 C   0  0  0  0  0  0  0  0  0  0  0  0
    2.1561    3.0323    0.0000 O   0  0  0  0  0  0  0  0  0  0  0  0
    3.4807    1.9163    0.0000 O   0  0  0  0  0  0  0  0  0  0  0  0
    0.8675    0.4975    0.0000 C   0  0  0  0  0  0  0  0  0  0  0  0
    0.0000    0.0000    0.0000 C   0  0  0  0  0  0  0  0  0  0  0  0
   -0.8675    0.4975    0.0000 C   0  0  0  0  0  0  0  0  0  0  0  0
   -0.8675    1.5027    0.0000 C   0  0  0  0  0  0  0  0  0  0  0  0
    0.0000    2.0104    0.0000 C   0  0  0  0  0  0  0  0  0  0  0  0
  1  2  1  0  0  0  0
  2  3  1  0  0  0  0
  3 12  1  0  0  0  0
  3  4  1  0  0  0  0
  4  5  1  0  0  0  0
  5  6  2  0  0  0  0
  5  7  1  0  0  0  0
  3  8  1  0  0  0  0
  8  9  1  0  0  0  0
  9 10  1  0  0  0  0
 10 11  1  0  0  0  0
 11 12  1  0  0  0  0
M  END
>  <Name>
Gabapentin

>  <CAS #>
60142-96-3

>  <human Clearance (mL/min/kg)>
1.7

>  <Primary mechanism (metabolic, biliary or renal)>
renal

>  <seqId>
406.0

>  <Code (mechanism and clearance degree index)>
R1

>  < Five M1 and R1 test groups>
R1_5

>  <formamide>
0

>  <prodrug phosphates>
0

>  <VolSurf_V>
424.375

>  <VolSurf_S>
302.757

>  <VolSurf_R>
1.4017

>  <VolSurf_G>
1.16725

>  <VolSurf_IW1>
0.226506

>  <VolSurf_IW2>
0.500078

>  <VolSurf_IW3>
0.966338

>  <VolSurf_IW4>
1.56846

>  <VolSurf_ID1>
0.110984

>  <VolSurf_ID2>
0.230643

>  <VolSurf_ID3>
0.405276

>  <VolSurf_ID4>
0.0

>  <VolSurf_HL1>
20.2045

>  <VolSurf_HL2>
55.8889

>  <VolSurf_A>
6.6355

>  <VolSurf_CP>
0.0493437

>  <VolSurf_POL>
19.905

>  <VolSurf_MW>
171.237

>  <VolSurf_FLEX>
0.847686

>  <VolSurf_FLEX_RB>
0.211922

>  <VolSurf_NCC>
2.0

>  <VolSurf_LOGP n-Oct>
0.555

>  <VolSurf_LOGP c-Hex>
-1.582

>  <VolSurf_PSA>
80.73

>  <VolSurf_HSA>
222.027

>  <VolSurf_PSAR>
0.26665

>  <VolSurf_PHSAR>
0.363605

>  <VolSurf_LgD5>
-1.73394

>  <VolSurf_LgD6>
-1.70717

>  <VolSurf_LgD7>
-1.7045

>  <VolSurf_LgD7.5>
-1.7047

>  <VolSurf_LgD8>
-1.70591

>  <VolSurf_LgD9>
-1.7224

>  <VolSurf_LgD10>
-1.85574

>  <VolSurf_AUS7.4>
0.0

>  <VolSurf_%FU4>
0.0

>  <VolSurf_%FU5>
0.0

>  <VolSurf_%FU6>
0.0

>  <VolSurf_%FU7>
0.0

>  <VolSurf_%FU8>
0.0

>  <VolSurf_%FU9>
0.0

>  <VolSurf_%FU10>
0.0

>  <ID>
201

>  <MOKAID>
202

>  <Clearance Route>
uncertain

>  <PC1>
-1.00201

>  <PC2>
4.937069999999999

$$$$
Galanthamine
  -OEChem-08301611272D

 22 25  0     1  0  0  0  0  0999 V2000
    2.9896    4.9553    0.0000 C   0  0  0  0  0  0  0  0  0  0  0  0
    2.0169    4.7231    0.0000 O   0  0  0  0  0  0  0  0  0  0  0  0
    1.7316    3.7647    0.0000 C   0  0  0  0  0  0  0  0  0  0  0  0
    2.4892    2.9642    0.0000 C   0  0  0  0  0  0  0  0  0  0  0  0
    2.1747    1.9078    0.0000 C   0  0  0  0  0  0  0  0  0  0  0  0
    1.1026    1.6520    0.0000 C   0  0  0  0  0  0  0  0  0  0  0  0
    0.9491    0.5606    0.0000 C   0  0  0  0  0  0  0  0  0  0  0  0
    0.0000   -0.0000    0.0000 N   0  0  3  0  0  0  0  0  0  0  0  0
    0.0846   -0.9964    0.0000 C   0  0  0  0  0  0  0  0  0  0  0  0
   -1.0298    0.3925    0.0000 C   0  0  0  0  0  0  0  0  0  0  0  0
   -1.3372    1.3869    0.0000 C   0  0  0  0  0  0  0  0  0  0  0  0
   -0.7568    2.4251    0.0000 C   0  0  1  0  0  0  0  0  0  0  0  0
   -1.5296    1.7904    0.0000 C   0  0  0  0  0  0  0  0  0  0  0  0
   -2.5574    1.7904    0.0000 C   0  0  0  0  0  0  0  0  0  0  0  0
   -2.9238    2.8299    0.0000 C   0  0  2  0  0  0  0  0  0  0  0  0
   -3.9068    3.0135    0.0000 O   0  0  0  0  0  0  0  0  0  0  0  0
   -2.2069    3.6670    0.0000 C   0  0  0  0  0  0  0  0  0  0  0  0
   -1.1234    3.4646    0.0000 C   0  0  2  0  0  0  0  0  0  0  0  0
   -0.2481    4.1344    0.0000 O   0  0  0  0  0  0  0  0  0  0  0  0
    0.6596    3.5089    0.0000 C   0  0  0  0  0  0  0  0  0  0  0  0
    0.3450    2.4251    0.0000 C   0  0  0  0  0  0  0  0  0  0  0  0
   -1.3555    4.4373    0.0000 H   0  0  0  0  0  0  0  0  0  0  0  0
  1  2  1  0  0  0  0
  2  3  1  0  0  0  0
  3 20  2  0  0  0  0
  3  4  1  0  0  0  0
  4  5  2  0  0  0  0
  5  6  1  0  0  0  0
  6 21  2  0  0  0  0
  6  7  1  0  0  0  0
  7  8  1  0  0  0  0
  8  9  1  0  0  0  0
  8 10  1  0  0  0  0
 10 11  1  0  0  0  0
 12 11  1  1  0  0  0
 12 18  1  0  0  0  0
 12 21  1  0  0  0  0
 12 13  1  6  0  0  0
 13 14  2  0  0  0  0
 14 15  1  0  0  0  0
 15 16  1  6  0  0  0
 15 17  1  0  0  0  0
 17 18  1  0  0  0  0
 18 19  1  0  0  0  0
 19 20  1  0  0  0  0
 20 21  1  0  0  0  0
 18 22  1  1  0  0  0
M  END
>  <Name>
Galanthamine

>  <CAS #>
357-70-0

>  <human Clearance (mL/min/kg)>
5.6

>  <Primary mechanism (metabolic, biliary or renal)>
metabolic

>  <seqId>
407.0

>  <Code (mechanism and clearance degree index)>
M1

>  < Five M1 and R1 test groups>
M1_1

>  <formamide>
0

>  <prodrug phosphates>
0

>  <VolSurf_V>
643.625

>  <VolSurf_S>
425.518

>  <VolSurf_R>
1.51257

>  <VolSurf_G>
1.28238

>  <VolSurf_IW1>
0.109694

>  <VolSurf_IW2>
0.360318

>  <VolSurf_IW3>
0.752645

>  <VolSurf_IW4>
1.10074

>  <VolSurf_ID1>
0.0545395

>  <VolSurf_ID2>
0.104434

>  <VolSurf_ID3>
0.179504

>  <VolSurf_ID4>
0.274142

>  <VolSurf_HL1>
2.43534

>  <VolSurf_HL2>
1.78571

>  <VolSurf_A>
5.01069

>  <VolSurf_CP>
0.646481

>  <VolSurf_POL>
33.29

>  <VolSurf_MW>
288.361

>  <VolSurf_FLEX>
0.103266

>  <VolSurf_FLEX_RB>
0.0258166

>  <VolSurf_NCC>
1.0

>  <VolSurf_LOGP n-Oct>
1.805

>  <VolSurf_LOGP c-Hex>
0.529

>  <VolSurf_PSA>
54.5

>  <VolSurf_HSA>
371.018

>  <VolSurf_PSAR>
0.128079

>  <VolSurf_PHSAR>
0.146893

>  <VolSurf_LgD5>
-1.08289

>  <VolSurf_LgD6>
-0.194401

>  <VolSurf_LgD7>
0.756849

>  <VolSurf_LgD7.5>
1.17928

>  <VolSurf_LgD8>
1.4996

>  <VolSurf_LgD9>
1.7628

>  <VolSurf_LgD10>
1.80059

>  <VolSurf_AUS7.4>
1.31063

>  <VolSurf_%FU4>
0.00979472

>  <VolSurf_%FU5>
0.0978609

>  <VolSurf_%FU6>
0.970065

>  <VolSurf_%FU7>
8.92173

>  <VolSurf_%FU8>
49.4839

>  <VolSurf_%FU9>
90.737

>  <VolSurf_%FU10>
98.9893

>  <ID>
202

>  <MOKAID>
203

>  <Clearance Route>
metabolic

>  <PC1>
2.15302

>  <PC2>
2.13782

$$$$
Ganciclovir
  -OEChem-08301611272D

 18 19  0     0  0  0  0  0  0999 V2000
   -1.7333   -2.0149    0.0000 N   0  0  0  0  0  0  0  0  0  0  0  0
   -0.8680   -1.5137    0.0000 C   0  0  0  0  0  0  0  0  0  0  0  0
    0.0000   -2.0116    0.0000 N   0  0  0  0  0  0  0  0  0  0  0  0
    0.8680   -1.5150    0.0000 C   0  0  0  0  0  0  0  0  0  0  0  0
    0.8680   -0.5079    0.0000 C   0  0  0  0  0  0  0  0  0  0  0  0
    1.8258   -0.1969    0.0000 N   0  0  0  0  0  0  0  0  0  0  0  0
    2.4178   -1.0115    0.0000 C   0  0  0  0  0  0  0  0  0  0  0  0
    1.8258   -1.8263    0.0000 N   0  0  0  0  0  0  0  0  0  0  0  0
    2.1348   -2.7774    0.0000 C   0  0  0  0  0  0  0  0  0  0  0  0
    3.1129   -2.9853    0.0000 O   0  0  0  0  0  0  0  0  0  0  0  0
    3.4219   -3.9364    0.0000 C   0  0  0  0  0  0  0  0  0  0  0  0
    4.4000   -4.1444    0.0000 C   0  0  0  0  0  0  0  0  0  0  0  0
    5.0692   -3.4013    0.0000 O   0  0  0  0  0  0  0  0  0  0  0  0
    2.7527   -4.6795    0.0000 C   0  0  0  0  0  0  0  0  0  0  0  0
    3.0617   -5.6306    0.0000 O   0  0  0  0  0  0  0  0  0  0  0  0
    0.0000    0.0000    0.0000 C   0  0  0  0  0  0  0  0  0  0  0  0
    0.0000    1.0000    0.0000 O   0  0  0  0  0  0  0  0  0  0  0  0
   -0.8680   -0.5079    0.0000 N   0  0  0  0  0  0  0  0  0  0  0  0
  1  2  1  0  0  0  0
  2 18  1  0  0  0  0
  2  3  2  0  0  0  0
  3  4  1  0  0  0  0
  4  8  1  0  0  0  0
  4  5  2  0  0  0  0
  5  6  1  0  0  0  0
  6  7  2  0  0  0  0
  7  8  1  0  0  0  0
  8  9  1  0  0  0  0
  9 10  1  0  0  0  0
 10 11  1  0  0  0  0
 11 12  1  0  0  0  0
 12 13  1  0  0  0  0
 11 14  1  0  0  0  0
 14 15  1  0  0  0  0
  5 16  1  0  0  0  0
 16 17  2  0  0  0  0
 16 18  1  0  0  0  0
M  END
>  <Name>
Ganciclovir

>  <CAS #>
82410-32-0

>  <human Clearance (mL/min/kg)>
4.6

>  <Primary mechanism (metabolic, biliary or renal)>
renal

>  <seqId>
410.0

>  <Code (mechanism and clearance degree index)>
R1

>  < Five M1 and R1 test groups>
R1_4

>  <formamide>
0

>  <prodrug phosphates>
0

>  <VolSurf_V>
508.75

>  <VolSurf_S>
373.936

>  <VolSurf_R>
1.36053

>  <VolSurf_G>
1.33649

>  <VolSurf_IW1>
0.0233976

>  <VolSurf_IW2>
0.0441974

>  <VolSurf_IW3>
0.12905

>  <VolSurf_IW4>
0.795676

>  <VolSurf_ID1>
0.162856

>  <VolSurf_ID2>
0.231407

>  <VolSurf_ID3>
0.27021

>  <VolSurf_ID4>
0.335836

>  <VolSurf_HL1>
10.1519

>  <VolSurf_HL2>
6.49194

>  <VolSurf_A>
2.97211

>  <VolSurf_CP>
0.15954

>  <VolSurf_POL>
23.554

>  <VolSurf_MW>
255.231

>  <VolSurf_FLEX>
1.2654

>  <VolSurf_FLEX_RB>
0.158175

>  <VolSurf_NCC>
0.0

>  <VolSurf_LOGP n-Oct>
-2.561

>  <VolSurf_LOGP c-Hex>
-6.818

>  <VolSurf_PSA>
136.38

>  <VolSurf_HSA>
237.556

>  <VolSurf_PSAR>
0.364715

>  <VolSurf_PHSAR>
0.574097

>  <VolSurf_LgD5>
-2.56418

>  <VolSurf_LgD6>
-2.56188

>  <VolSurf_LgD7>
-2.5667

>  <VolSurf_LgD7.5>
-2.5787

>  <VolSurf_LgD8>
-2.61465

>  <VolSurf_LgD9>
-2.92556

>  <VolSurf_LgD10>
-3.71271

>  <VolSurf_AUS7.4>
1.989

>  <VolSurf_%FU4>
93.2172

>  <VolSurf_%FU5>
99.2706

>  <VolSurf_%FU6>
99.7968

>  <VolSurf_%FU7>
98.6949

>  <VolSurf_%FU8>
88.3761

>  <VolSurf_%FU9>
43.1778

>  <VolSurf_%FU10>
7.02249

>  <ID>
203

>  <MOKAID>
204

>  <Clearance Route>
renal

>  <PC1>
-2.19107

>  <PC2>
3.41411

$$$$
Garenoxacin
  -OEChem-08301611272D

 31 35  0     1  0  0  0  0  0999 V2000
   -4.8040    2.3828    0.0000 N   0  0  0  0  0  0  0  0  0  0  0  0
   -4.2119    1.5683    0.0000 C   0  0  0  0  0  0  0  0  0  0  0  0
   -3.2541    1.8793    0.0000 C   0  0  0  0  0  0  0  0  0  0  0  0
   -2.3861    1.3715    0.0000 C   0  0  0  0  0  0  0  0  0  0  0  0
   -1.5181    1.8794    0.0000 C   0  0  0  0  0  0  0  0  0  0  0  0
   -1.5182    2.8852    0.0000 C   0  0  0  0  0  0  0  0  0  0  0  0
   -2.3862    3.3831    0.0000 C   0  0  0  0  0  0  0  0  0  0  0  0
   -3.2542    2.8864    0.0000 C   0  0  0  0  0  0  0  0  0  0  0  0
   -4.2120    3.1977    0.0000 C   0  0  1  0  0  0  0  0  0  0  0  0
   -4.5210    4.1487    0.0000 C   0  0  0  0  0  0  0  0  0  0  0  0
    0.0000    1.0089    0.0000 C   0  0  0  0  0  0  0  0  0  0  0  0
    0.0000    0.0000    0.0000 C   0  0  0  0  0  0  0  0  0  0  0  0
    0.8707   -0.4993    0.0000 C   0  0  0  0  0  0  0  0  0  0  0  0
    1.7371    0.0000    0.0000 C   0  0  0  0  0  0  0  0  0  0  0  0
    2.6039   -0.5053    0.0000 C   0  0  0  0  0  0  0  0  0  0  0  0
    3.4805   -0.0073    0.0000 C   0  0  0  0  0  0  0  0  0  0  0  0
    3.4848    1.0014    0.0000 C   0  0  0  0  0  0  0  0  0  0  0  0
    2.6125    1.5125    0.0000 N   0  0  0  0  0  0  0  0  0  0  0  0
    2.6154    2.5125    0.0000 C   0  0  0  0  0  0  0  0  0  0  0  0
    3.1179    3.3792    0.0000 C   0  0  0  0  0  0  0  0  0  0  0  0
    2.1179    3.3821    0.0000 C   0  0  0  0  0  0  0  0  0  0  0  0
    1.7414    1.0089    0.0000 C   0  0  0  0  0  0  0  0  0  0  0  0
    0.8707    1.5185    0.0000 C   0  0  0  0  0  0  0  0  0  0  0  0
    0.8707    3.2685    0.0000 O   0  0  0  0  0  0  0  0  0  0  0  0
    0.0047    3.7685    0.0000 C   0  0  0  0  0  0  0  0  0  0  0  0
   -0.8614    3.2685    0.0000 F   0  0  0  0  0  0  0  0  0  0  0  0
    0.0047    4.7685    0.0000 F   0  0  0  0  0  0  0  0  0  0  0  0
    4.3437   -0.5122    0.0000 C   0  0  0  0  0  0  0  0  0  0  0  0
    4.3381   -1.5121    0.0000 O   0  0  0  0  0  0  0  0  0  0  0  0
    5.2125   -0.0170    0.0000 O   0  0  0  0  0  0  0  0  0  0  0  0
    2.5983   -1.5053    0.0000 O   0  0  0  0  0  0  0  0  0  0  0  0
  1  9  1  0  0  0  0
  1  2  1  0  0  0  0
  2  3  1  0  0  0  0
  3  8  2  0  0  0  0
  3  4  1  0  0  0  0
  4  5  2  0  0  0  0
  5  6  1  0  0  0  0
  6  7  2  0  0  0  0
  7  8  1  0  0  0  0
  8  9  1  0  0  0  0
  9 10  1  6  0  0  0
  5 11  1  0  0  0  0
 11 23  2  0  0  0  0
 11 12  1  0  0  0  0
 12 13  2  0  0  0  0
 13 14  1  0  0  0  0
 14 22  2  0  0  0  0
 14 15  1  0  0  0  0
 15 16  1  0  0  0  0
 16 17  2  0  0  0  0
 17 18  1  0  0  0  0
 18 19  1  0  0  0  0
 19 21  1  0  0  0  0
 19 20  1  0  0  0  0
 20 21  1  0  0  0  0
 18 22  1  0  0  0  0
 22 23  1  0  0  0  0
 23 24  1  0  0  0  0
 24 25  1  0  0  0  0
 25 26  1  0  0  0  0
 25 27  1  0  0  0  0
 16 28  1  0  0  0  0
 28 29  2  0  0  0  0
 28 30  1  0  0  0  0
 15 31  2  0  0  0  0
M  END
>  <Name>
Garenoxacin

>  <CAS #>
194804-75-6

>  <human Clearance (mL/min/kg)>
1.23

>  <Primary mechanism (metabolic, biliary or renal)>
renal

>  <seqId>
411.0

>  <Code (mechanism and clearance degree index)>
R1

>  < Five M1 and R1 test groups>
R1_5

>  <formamide>
0

>  <prodrug phosphates>
0

>  <VolSurf_V>
848.5

>  <VolSurf_S>
563.236

>  <VolSurf_R>
1.50647

>  <VolSurf_G>
1.48135

>  <VolSurf_IW1>
0.0982724

>  <VolSurf_IW2>
0.243336

>  <VolSurf_IW3>
0.738211

>  <VolSurf_IW4>
1.53577

>  <VolSurf_ID1>
0.0507024

>  <VolSurf_ID2>
0.117703

>  <VolSurf_ID3>
0.151792

>  <VolSurf_ID4>
0.199126

>  <VolSurf_HL1>
3.32635

>  <VolSurf_HL2>
2.52792

>  <VolSurf_A>
6.7193

>  <VolSurf_CP>
0.426196

>  <VolSurf_POL>
42.982

>  <VolSurf_MW>
426.413

>  <VolSurf_FLEX>
0.8176

>  <VolSurf_FLEX_RB>
0.136267

>  <VolSurf_NCC>
2.0

>  <VolSurf_LOGP n-Oct>
3.427

>  <VolSurf_LOGP c-Hex>
1.368

>  <VolSurf_PSA>
104.61

>  <VolSurf_HSA>
458.626

>  <VolSurf_PSAR>
0.18573

>  <VolSurf_PHSAR>
0.228094

>  <VolSurf_LgD5>
0.142944

>  <VolSurf_LgD6>
0.677668

>  <VolSurf_LgD7>
1.04362

>  <VolSurf_LgD7.5>
1.08915

>  <VolSurf_LgD8>
1.08448

>  <VolSurf_LgD9>
0.896689

>  <VolSurf_LgD10>
0.556997

>  <VolSurf_AUS7.4>
0.0

>  <VolSurf_%FU4>
0.0

>  <VolSurf_%FU5>
0.0

>  <VolSurf_%FU6>
0.0

>  <VolSurf_%FU7>
0.0

>  <VolSurf_%FU8>
0.0

>  <VolSurf_%FU9>
0.0

>  <VolSurf_%FU10>
0.0

>  <ID>
204

>  <MOKAID>
205

>  <Clearance Route>
possible billary

>  <PC1>
0.5286

>  <PC2>
-0.348097

$$$$
Gatifloxacin
  -OEChem-08301611272D

 27 30  0     1  0  0  0  0  0999 V2000
    0.0047    3.0185    0.0000 C   0  0  0  0  0  0  0  0  0  0  0  0
    0.8707    2.5185    0.0000 O   0  0  0  0  0  0  0  0  0  0  0  0
    0.8707    1.5185    0.0000 C   0  0  0  0  0  0  0  0  0  0  0  0
    0.0000    1.0089    0.0000 C   0  0  0  0  0  0  0  0  0  0  0  0
   -0.8675    1.5063    0.0000 N   0  0  3  0  0  0  0  0  0  0  0  0
   -1.7306    1.0014    0.0000 C   0  0  0  0  0  0  0  0  0  0  0  0
   -2.6026    1.5014    0.0000 C   0  0  0  0  0  0  0  0  0  0  0  0
   -2.6114    2.5063    0.0000 N   0  0  0  0  0  0  0  0  0  0  0  0
   -1.7396    3.0063    0.0000 C   0  0  3  0  0  0  0  0  0  0  0  0
   -1.7397    4.0063    0.0000 C   0  0  0  0  0  0  0  0  0  0  0  0
   -0.8677    2.5063    0.0000 C   0  0  0  0  0  0  0  0  0  0  0  0
    0.0000    0.0000    0.0000 C   0  0  0  0  0  0  0  0  0  0  0  0
   -0.8653   -0.5013    0.0000 F   0  0  0  0  0  0  0  0  0  0  0  0
    0.8707   -0.4993    0.0000 C   0  0  0  0  0  0  0  0  0  0  0  0
    1.7371    0.0000    0.0000 C   0  0  0  0  0  0  0  0  0  0  0  0
    2.6039   -0.5053    0.0000 C   0  0  0  0  0  0  0  0  0  0  0  0
    2.5983   -1.5053    0.0000 O   0  0  0  0  0  0  0  0  0  0  0  0
    3.4805   -0.0073    0.0000 C   0  0  0  0  0  0  0  0  0  0  0  0
    3.4848    1.0014    0.0000 C   0  0  0  0  0  0  0  0  0  0  0  0
    2.6125    1.5125    0.0000 N   0  0  0  0  0  0  0  0  0  0  0  0
    2.6154    2.5125    0.0000 C   0  0  0  0  0  0  0  0  0  0  0  0
    3.1179    3.3792    0.0000 C   0  0  0  0  0  0  0  0  0  0  0  0
    2.1179    3.3821    0.0000 C   0  0  0  0  0  0  0  0  0  0  0  0
    1.7414    1.0089    0.0000 C   0  0  0  0  0  0  0  0  0  0  0  0
    4.3437   -0.5122    0.0000 C   0  0  0  0  0  0  0  0  0  0  0  0
    4.3381   -1.5121    0.0000 O   0  0  0  0  0  0  0  0  0  0  0  0
    5.2125   -0.0170    0.0000 O   0  0  0  0  0  0  0  0  0  0  0  0
  1  2  1  0  0  0  0
  2  3  1  0  0  0  0
  3 24  2  0  0  0  0
  3  4  1  0  0  0  0
  4  5  1  0  0  0  0
  5 11  1  0  0  0  0
  5  6  1  0  0  0  0
  6  7  1  0  0  0  0
  7  8  1  0  0  0  0
  8  9  1  0  0  0  0
  9 10  1  0  0  0  0
  9 11  1  0  0  0  0
  4 12  2  0  0  0  0
 12 13  1  0  0  0  0
 12 14  1  0  0  0  0
 14 15  2  0  0  0  0
 15 24  1  0  0  0  0
 15 16  1  0  0  0  0
 16 17  2  0  0  0  0
 16 18  1  0  0  0  0
 18 19  2  0  0  0  0
 19 20  1  0  0  0  0
 20 21  1  0  0  0  0
 21 23  1  0  0  0  0
 21 22  1  0  0  0  0
 22 23  1  0  0  0  0
 20 24  1  0  0  0  0
 18 25  1  0  0  0  0
 25 26  2  0  0  0  0
 25 27  1  0  0  0  0
M  END
>  <Name>
Gatifloxacin

>  <CAS #>
112811-59-3

>  <human Clearance (mL/min/kg)>
2.8

>  <Primary mechanism (metabolic, biliary or renal)>
renal

>  <seqId>
412.0

>  <Code (mechanism and clearance degree index)>
R1

>  < Five M1 and R1 test groups>
R1_1

>  <formamide>
0

>  <prodrug phosphates>
0

>  <VolSurf_V>
770.875

>  <VolSurf_S>
514.646

>  <VolSurf_R>
1.49787

>  <VolSurf_G>
1.42414

>  <VolSurf_IW1>
0.124982

>  <VolSurf_IW2>
0.287695

>  <VolSurf_IW3>
0.737231

>  <VolSurf_IW4>
1.44716

>  <VolSurf_ID1>
0.0266844

>  <VolSurf_ID2>
0.0488316

>  <VolSurf_ID3>
0.0658772

>  <VolSurf_ID4>
0.0752343

>  <VolSurf_HL1>
5.565

>  <VolSurf_HL2>
3.93701

>  <VolSurf_A>
3.36562

>  <VolSurf_CP>
0.734963

>  <VolSurf_POL>
38.56

>  <VolSurf_MW>
375.394

>  <VolSurf_FLEX>
0.579638

>  <VolSurf_FLEX_RB>
0.0966063

>  <VolSurf_NCC>
2.0

>  <VolSurf_LOGP n-Oct>
2.146

>  <VolSurf_LOGP c-Hex>
-1.347

>  <VolSurf_PSA>
109.62

>  <VolSurf_HSA>
405.026

>  <VolSurf_PSAR>
0.213001

>  <VolSurf_PHSAR>
0.270649

>  <VolSurf_LgD5>
-1.41325

>  <VolSurf_LgD6>
-0.966695

>  <VolSurf_LgD7>
-0.675877

>  <VolSurf_LgD7.5>
-0.649288

>  <VolSurf_LgD8>
-0.66895

>  <VolSurf_LgD9>
-0.788616

>  <VolSurf_LgD10>
-0.844453

>  <VolSurf_AUS7.4>
0.0

>  <VolSurf_%FU4>
0.0

>  <VolSurf_%FU5>
0.0

>  <VolSurf_%FU6>
0.0

>  <VolSurf_%FU7>
0.0

>  <VolSurf_%FU8>
0.0

>  <VolSurf_%FU9>
0.0

>  <VolSurf_%FU10>
0.0

>  <ID>
205

>  <MOKAID>
206

>  <Clearance Route>
uncertain

>  <PC1>
-0.606938

>  <PC2>
0.729951

$$$$
Gefitinib
  -OEChem-08301611272D

 31 34  0     0  0  0  0  0  0999 V2000
   -0.8704    2.5031    0.0000 C   0  0  0  0  0  0  0  0  0  0  0  0
   -0.8675    1.5031    0.0000 O   0  0  0  0  0  0  0  0  0  0  0  0
   -0.0000    1.0056    0.0000 C   0  0  0  0  0  0  0  0  0  0  0  0
    0.8679    1.5135    0.0000 C   0  0  0  0  0  0  0  0  0  0  0  0
    1.7358    1.0056    0.0000 C   0  0  0  0  0  0  0  0  0  0  0  0
    2.6012    1.5123    0.0000 N   0  0  0  0  0  0  0  0  0  0  0  0
    3.4735    1.0079    0.0000 C   0  0  0  0  0  0  0  0  0  0  0  0
    3.4748    0.0023    0.0000 N   0  0  0  0  0  0  0  0  0  0  0  0
    2.6038   -0.4989    0.0000 C   0  0  0  0  0  0  0  0  0  0  0  0
    2.6037   -1.4989    0.0000 N   0  0  0  0  0  0  0  0  0  0  0  0
    3.4697   -1.9990    0.0000 C   0  0  0  0  0  0  0  0  0  0  0  0
    3.4667   -3.0042    0.0000 C   0  0  0  0  0  0  0  0  0  0  0  0
    4.3327   -3.5043    0.0000 C   0  0  0  0  0  0  0  0  0  0  0  0
    5.2017   -3.0094    0.0000 C   0  0  0  0  0  0  0  0  0  0  0  0
    6.0654   -3.5133    0.0000 F   0  0  0  0  0  0  0  0  0  0  0  0
    5.2047   -2.0042    0.0000 C   0  0  0  0  0  0  0  0  0  0  0  0
    6.0737   -1.5094    0.0000 Cl  0  0  0  0  0  0  0  0  0  0  0  0
    4.3387   -1.4939    0.0000 C   0  0  0  0  0  0  0  0  0  0  0  0
    1.7371    0.0000    0.0000 C   0  0  0  0  0  0  0  0  0  0  0  0
    0.8679   -0.4977    0.0000 C   0  0  0  0  0  0  0  0  0  0  0  0
    0.0000    0.0000    0.0000 C   0  0  0  0  0  0  0  0  0  0  0  0
   -0.8653   -0.5013    0.0000 O   0  0  0  0  0  0  0  0  0  0  0  0
   -0.8638   -1.5013    0.0000 C   0  0  0  0  0  0  0  0  0  0  0  0
   -1.7291   -2.0025    0.0000 C   0  0  0  0  0  0  0  0  0  0  0  0
   -1.7277   -3.0025    0.0000 C   0  0  0  0  0  0  0  0  0  0  0  0
   -2.5930   -3.5038    0.0000 N   0  0  0  0  0  0  0  0  0  0  0  0
   -2.5886   -4.5038    0.0000 C   0  0  0  0  0  0  0  0  0  0  0  0
   -3.4584   -5.0077    0.0000 C   0  0  0  0  0  0  0  0  0  0  0  0
   -4.3325   -4.5115    0.0000 O   0  0  0  0  0  0  0  0  0  0  0  0
   -4.3281   -3.5064    0.0000 C   0  0  0  0  0  0  0  0  0  0  0  0
   -3.4583   -3.0025    0.0000 C   0  0  0  0  0  0  0  0  0  0  0  0
  1  2  1  0  0  0  0
  2  3  1  0  0  0  0
  3 21  2  0  0  0  0
  3  4  1  0  0  0  0
  4  5  2  0  0  0  0
  5 19  1  0  0  0  0
  5  6  1  0  0  0  0
  6  7  2  0  0  0  0
  7  8  1  0  0  0  0
  8  9  2  0  0  0  0
  9 10  1  0  0  0  0
 10 11  1  0  0  0  0
 11 18  2  0  0  0  0
 11 12  1  0  0  0  0
 12 13  2  0  0  0  0
 13 14  1  0  0  0  0
 14 15  1  0  0  0  0
 14 16  2  0  0  0  0
 16 17  1  0  0  0  0
 16 18  1  0  0  0  0
  9 19  1  0  0  0  0
 19 20  2  0  0  0  0
 20 21  1  0  0  0  0
 21 22  1  0  0  0  0
 22 23  1  0  0  0  0
 23 24  1  0  0  0  0
 24 25  1  0  0  0  0
 25 26  1  0  0  0  0
 26 31  1  0  0  0  0
 26 27  1  0  0  0  0
 27 28  1  0  0  0  0
 28 29  1  0  0  0  0
 29 30  1  0  0  0  0
 30 31  1  0  0  0  0
M  END
>  <Name>
Gefitinib

>  <CAS #>
184475-35-2

>  <human Clearance (mL/min/kg)>
12.0

>  <Primary mechanism (metabolic, biliary or renal)>
metabolic

>  <seqId>
414.0

>  <Code (mechanism and clearance degree index)>
M1

>  < Five M1 and R1 test groups>
M1_5

>  <formamide>
0

>  <prodrug phosphates>
0

>  <VolSurf_V>
951.125

>  <VolSurf_S>
653.808

>  <VolSurf_R>
1.45475

>  <VolSurf_G>
1.65276

>  <VolSurf_IW1>
0.0146085

>  <VolSurf_IW2>
0.0356705

>  <VolSurf_IW3>
0.0558187

>  <VolSurf_IW4>
1.10121

>  <VolSurf_ID1>
0.0453949

>  <VolSurf_ID2>
0.103554

>  <VolSurf_ID3>
0.151927

>  <VolSurf_ID4>
0.198312

>  <VolSurf_HL1>
1.4403

>  <VolSurf_HL2>
0.606299

>  <VolSurf_A>
2.32614

>  <VolSurf_CP>
0.978148

>  <VolSurf_POL>
47.263

>  <VolSurf_MW>
447.91

>  <VolSurf_FLEX>
2.94872

>  <VolSurf_FLEX_RB>
0.327636

>  <VolSurf_NCC>
1.0

>  <VolSurf_LOGP n-Oct>
4.328

>  <VolSurf_LOGP c-Hex>
0.875

>  <VolSurf_PSA>
89.49

>  <VolSurf_HSA>
564.318

>  <VolSurf_PSAR>
0.136875

>  <VolSurf_PHSAR>
0.158581

>  <VolSurf_LgD5>
1.23791

>  <VolSurf_LgD6>
2.62984

>  <VolSurf_LgD7>
3.62536

>  <VolSurf_LgD7.5>
3.97434

>  <VolSurf_LgD8>
4.18323

>  <VolSurf_LgD9>
4.31118

>  <VolSurf_LgD10>
4.32629

>  <VolSurf_AUS7.4>
1.59486

>  <VolSurf_%FU4>
9.51267E-4

>  <VolSurf_%FU5>
0.0710451

>  <VolSurf_%FU6>
1.97631

>  <VolSurf_%FU7>
19.8044

>  <VolSurf_%FU8>
71.6418

>  <VolSurf_%FU9>
96.2008

>  <VolSurf_%FU10>
99.6067

>  <ID>
206

>  <MOKAID>
207

>  <Clearance Route>
metabolic

>  <PC1>
2.97919

>  <PC2>
-2.60748

$$$$
Gemcitabine
  -OEChem-08301611272D

 18 19  0     1  0  0  0  0  0999 V2000
    0.8675   -1.4975    0.0000 N   0  0  0  0  0  0  0  0  0  0  0  0
    0.8675   -0.4975    0.0000 C   0  0  0  0  0  0  0  0  0  0  0  0
    1.7350    0.0000    0.0000 N   0  0  0  0  0  0  0  0  0  0  0  0
    1.7350    1.0052    0.0000 C   0  0  0  0  0  0  0  0  0  0  0  0
    2.6025    1.5026    0.0000 O   0  0  0  0  0  0  0  0  0  0  0  0
    0.8675    1.5129    0.0000 N   0  0  0  0  0  0  0  0  0  0  0  0
    0.0000    1.0052    0.0000 C   0  0  0  0  0  0  0  0  0  0  0  0
    0.0000    0.0000    0.0000 C   0  0  0  0  0  0  0  0  0  0  0  0
    0.8675    2.5129    0.0000 C   0  0  2  0  0  0  0  0  0  0  0  0
    1.6797    3.1042    0.0000 O   0  0  0  0  0  0  0  0  0  0  0  0
    1.3658    4.0541    0.0000 C   0  0  2  0  0  0  0  0  0  0  0  0
    1.9521    4.8642    0.0000 C   0  0  0  0  0  0  0  0  0  0  0  0
    1.5437    5.7770    0.0000 O   0  0  0  0  0  0  0  0  0  0  0  0
    0.3658    4.0554    0.0000 C   0  0  1  0  0  0  0  0  0  0  0  0
   -0.2220    4.8643    0.0000 O   0  0  0  0  0  0  0  0  0  0  0  0
    0.0577    3.1024    0.0000 C   0  0  0  0  0  0  0  0  0  0  0  0
   -0.4424    2.2365    0.0000 F   0  0  0  0  0  0  0  0  0  0  0  0
   -0.8561    3.5086    0.0000 F   0  0  0  0  0  0  0  0  0  0  0  0
  1  2  1  0  0  0  0
  2  8  1  0  0  0  0
  2  3  2  0  0  0  0
  3  4  1  0  0  0  0
  4  5  2  0  0  0  0
  4  6  1  0  0  0  0
  6  7  1  0  0  0  0
  7  8  2  0  0  0  0
  9  6  1  1  0  0  0
  9 16  1  0  0  0  0
  9 10  1  0  0  0  0
 10 11  1  0  0  0  0
 11 12  1  1  0  0  0
 12 13  1  0  0  0  0
 11 14  1  0  0  0  0
 14 15  1  6  0  0  0
 14 16  1  0  0  0  0
 16 17  1  0  0  0  0
 16 18  1  0  0  0  0
M  END
>  <Name>
Gemcitabine

>  <CAS #>
95058-81-4

>  <human Clearance (mL/min/kg)>
32.0

>  <Primary mechanism (metabolic, biliary or renal)>
metabolic

>  <seqId>
415.0

>  <Code (mechanism and clearance degree index)>
M1

>  < Five M1 and R1 test groups>
M1_4

>  <formamide>
0

>  <prodrug phosphates>
0

>  <VolSurf_V>
479.625

>  <VolSurf_S>
357.32

>  <VolSurf_R>
1.34228

>  <VolSurf_G>
1.32421

>  <VolSurf_IW1>
0.114441

>  <VolSurf_IW2>
0.212615

>  <VolSurf_IW3>
0.490572

>  <VolSurf_IW4>
0.907227

>  <VolSurf_ID1>
0.148283

>  <VolSurf_ID2>
0.262728

>  <VolSurf_ID3>
0.385557

>  <VolSurf_ID4>
0.519131

>  <VolSurf_HL1>
14.8864

>  <VolSurf_HL2>
11.8627

>  <VolSurf_A>
5.52382

>  <VolSurf_CP>
0.0733261

>  <VolSurf_POL>
20.961

>  <VolSurf_MW>
263.198

>  <VolSurf_FLEX>
0.499704

>  <VolSurf_FLEX_RB>
0.0999409

>  <VolSurf_NCC>
0.0

>  <VolSurf_LOGP n-Oct>
-1.902

>  <VolSurf_LOGP c-Hex>
-4.576

>  <VolSurf_PSA>
115.12

>  <VolSurf_HSA>
242.2

>  <VolSurf_PSAR>
0.322176

>  <VolSurf_PHSAR>
0.47531

>  <VolSurf_LgD5>
-1.92499

>  <VolSurf_LgD6>
-1.90437

>  <VolSurf_LgD7>
-1.90244

>  <VolSurf_LgD7.5>
-1.90272

>  <VolSurf_LgD8>
-1.90406

>  <VolSurf_LgD9>
-1.92194

>  <VolSurf_LgD10>
-2.06938

>  <VolSurf_AUS7.4>
2.0

>  <VolSurf_%FU4>
64.7775

>  <VolSurf_%FU5>
94.8425

>  <VolSurf_%FU6>
99.4545

>  <VolSurf_%FU7>
99.8988

>  <VolSurf_%FU8>
99.527

>  <VolSurf_%FU9>
95.5119

>  <VolSurf_%FU10>
68.0079

>  <ID>
207

>  <MOKAID>
208

>  <Clearance Route>
uncertain

>  <PC1>
-0.568155

>  <PC2>
4.73588

$$$$
Genaconazole
  -OEChem-08301611272D

 22 23  0     1  0  0  0  0  0999 V2000
    1.6725    1.1101    0.0000 C   0  0  0  0  0  0  0  0  0  0  0  0
    2.1712    1.9769    0.0000 C   0  0  1  0  0  0  0  0  0  0  0  0
    1.6699    2.8421    0.0000 C   0  0  1  0  0  0  0  0  0  0  0  0
    2.5351    3.3434    0.0000 O   0  0  0  0  0  0  0  0  0  0  0  0
    0.8046    2.3408    0.0000 C   0  0  0  0  0  0  0  0  0  0  0  0
    0.8073    0.5908    0.0000 N   0  0  0  0  0  0  0  0  0  0  0  0
    0.0000    0.0000    0.0000 C   0  0  0  0  0  0  0  0  0  0  0  0
    0.3065   -0.9518    0.0000 N   0  0  0  0  0  0  0  0  0  0  0  0
    1.3080   -0.9518    0.0000 C   0  0  0  0  0  0  0  0  0  0  0  0
    1.6198   -0.0000    0.0000 N   0  0  0  0  0  0  0  0  0  0  0  0
    1.1686    3.7074    0.0000 C   0  0  0  0  0  0  0  0  0  0  0  0
    1.6660    4.5749    0.0000 C   0  0  0  0  0  0  0  0  0  0  0  0
    1.1684    5.4424    0.0000 C   0  0  0  0  0  0  0  0  0  0  0  0
    0.1632    5.4423    0.0000 C   0  0  0  0  0  0  0  0  0  0  0  0
   -0.3343    6.3098    0.0000 F   0  0  0  0  0  0  0  0  0  0  0  0
   -0.3444    4.5748    0.0000 C   0  0  0  0  0  0  0  0  0  0  0  0
    0.1634    3.7073    0.0000 C   0  0  0  0  0  0  0  0  0  0  0  0
   -0.3340    2.8398    0.0000 F   0  0  0  0  0  0  0  0  0  0  0  0
    3.1712    1.9784    0.0000 S   0  0  0  0  0  0  0  0  0  0  0  0
    3.1697    2.9784    0.0000 O   0  0  0  0  0  0  0  0  0  0  0  0
    3.1727    0.9784    0.0000 O   0  0  0  0  0  0  0  0  0  0  0  0
    4.1712    1.9799    0.0000 C   0  0  0  0  0  0  0  0  0  0  0  0
  2  1  1  1  0  0  0
  2  3  1  0  0  0  0
  3  4  1  6  0  0  0
  3  5  1  0  0  0  0
  5  6  1  0  0  0  0
  6 10  1  0  0  0  0
  6  7  1  0  0  0  0
  7  8  2  0  0  0  0
  8  9  1  0  0  0  0
  9 10  2  0  0  0  0
  3 11  1  0  0  0  0
 11 17  2  0  0  0  0
 11 12  1  0  0  0  0
 12 13  2  0  0  0  0
 13 14  1  0  0  0  0
 14 15  1  0  0  0  0
 14 16  2  0  0  0  0
 16 17  1  0  0  0  0
 17 18  1  0  0  0  0
  2 19  1  0  0  0  0
 19 20  2  0  0  0  0
 19 21  2  0  0  0  0
 19 22  1  0  0  0  0
M  END
>  <Name>
Genaconazole

>  <CAS #>
120924-80-3

>  <human Clearance (mL/min/kg)>
0.19

>  <Primary mechanism (metabolic, biliary or renal)>
renal

>  <seqId>
417.0

>  <Code (mechanism and clearance degree index)>
M1

>  < Five M1 and R1 test groups>
M1_5

>  <formamide>
0

>  <prodrug phosphates>
0

>  <VolSurf_V>
626.125

>  <VolSurf_S>
429.257

>  <VolSurf_R>
1.45862

>  <VolSurf_G>
1.33564

>  <VolSurf_IW1>
0.0279285

>  <VolSurf_IW2>
0.0558112

>  <VolSurf_IW3>
0.20734

>  <VolSurf_IW4>
1.2083

>  <VolSurf_ID1>
0.0656356

>  <VolSurf_ID2>
0.192971

>  <VolSurf_ID3>
0.293689

>  <VolSurf_ID4>
0.390374

>  <VolSurf_HL1>
11.1978

>  <VolSurf_HL2>
5.42

>  <VolSurf_A>
3.1039

>  <VolSurf_CP>
0.0965948

>  <VolSurf_POL>
30.579

>  <VolSurf_MW>
331.338

>  <VolSurf_FLEX>
1.87892

>  <VolSurf_FLEX_RB>
0.234865

>  <VolSurf_NCC>
0.0

>  <VolSurf_LOGP n-Oct>
-0.179

>  <VolSurf_LOGP c-Hex>
-2.819

>  <VolSurf_PSA>
101.463

>  <VolSurf_HSA>
327.795

>  <VolSurf_PSAR>
0.236368

>  <VolSurf_PHSAR>
0.309531

>  <VolSurf_LgD5>
-0.180188

>  <VolSurf_LgD6>
-0.179119

>  <VolSurf_LgD7>
-0.179012

>  <VolSurf_LgD7.5>
-0.179004

>  <VolSurf_LgD8>
-0.179001

>  <VolSurf_LgD9>
-0.179001

>  <VolSurf_LgD10>
-0.179008

>  <VolSurf_AUS7.4>
2.0

>  <VolSurf_%FU4>
97.3334

>  <VolSurf_%FU5>
99.7268

>  <VolSurf_%FU6>
99.9726

>  <VolSurf_%FU7>
99.9973

>  <VolSurf_%FU8>
99.9997

>  <VolSurf_%FU9>
99.9998

>  <VolSurf_%FU10>
99.9982

>  <ID>
208

>  <MOKAID>
209

>  <Clearance Route>
metabolic

>  <PC1>
1.3022200000000002

>  <PC2>
1.5884

$$$$
Gentamicin
  -OEChem-08301611272D

 32 34  0     1  0  0  0  0  0999 V2000
   -0.8660   -1.5000    0.0000 C   0  0  0  0  0  0  0  0  0  0  0  0
    0.0000   -1.0000    0.0000 N   0  0  0  0  0  0  0  0  0  0  0  0
    0.0000    0.0000    0.0000 C   0  0  2  0  0  0  0  0  0  0  0  0
    0.8675    0.4975    0.0000 C   0  0  1  0  0  0  0  0  0  0  0  0
    1.7328   -0.0038    0.0000 O   0  0  0  0  0  0  0  0  0  0  0  0
    0.8675    1.5027    0.0000 C   0  0  1  0  0  0  0  0  0  0  0  0
    1.7350    2.0001    0.0000 O   0  0  0  0  0  0  0  0  0  0  0  0
    1.7379    3.0001    0.0000 C   0  0  1  0  0  0  0  0  0  0  0  0
    0.8674    3.5027    0.0000 C   0  0  2  0  0  0  0  0  0  0  0  0
    0.0007    3.0040    0.0000 N   0  0  0  0  0  0  0  0  0  0  0  0
    0.8703    4.5028    0.0000 C   0  0  0  0  0  0  0  0  0  0  0  0
    1.7349    5.0053    0.0000 C   0  0  2  0  0  0  0  0  0  0  0  0
    1.7335    6.0053    0.0000 N   0  0  0  0  0  0  0  0  0  0  0  0
    2.6054    4.5027    0.0000 C   0  0  1  0  0  0  0  0  0  0  0  0
    3.4700    5.0052    0.0000 O   0  0  0  0  0  0  0  0  0  0  0  0
    4.3375    4.5078    0.0000 C   0  0  1  0  0  0  0  0  0  0  0  0
    4.3375    3.5027    0.0000 O   0  0  0  0  0  0  0  0  0  0  0  0
    5.2138    3.0104    0.0000 C   0  0  1  0  0  0  0  0  0  0  0  0
    6.0814    3.5181    0.0000 C   0  0  0  0  0  0  0  0  0  0  0  0
    6.0726    4.5181    0.0000 C   0  0  0  0  0  0  0  0  0  0  0  0
    5.2050    5.0155    0.0000 C   0  0  1  0  0  0  0  0  0  0  0  0
    5.2006    6.0155    0.0000 N   0  0  0  0  0  0  0  0  0  0  0  0
    5.2227    2.0104    0.0000 C   0  0  1  0  0  0  0  0  0  0  0  0
    6.0931    1.5181    0.0000 C   0  0  0  0  0  0  0  0  0  0  0  0
    4.3611    1.5028    0.0000 N   0  0  0  0  0  0  0  0  0  0  0  0
    2.6114    3.4976    0.0000 C   0  0  2  0  0  0  0  0  0  0  0  0
    3.4774    2.9976    0.0000 O   0  0  0  0  0  0  0  0  0  0  0  0
   -0.0000    2.0104    0.0000 O   0  0  0  0  0  0  0  0  0  0  0  0
   -0.8675    1.5027    0.0000 C   0  0  0  0  0  0  0  0  0  0  0  0
   -0.8675    0.4975    0.0000 C   0  0  1  0  0  0  0  0  0  0  0  0
   -1.2077   -0.4429    0.0000 C   0  0  0  0  0  0  0  0  0  0  0  0
   -1.8525    0.6702    0.0000 O   0  0  0  0  0  0  0  0  0  0  0  0
  1  2  1  0  0  0  0
  3  2  1  1  0  0  0
  3 30  1  0  0  0  0
  3  4  1  0  0  0  0
  4  5  1  6  0  0  0
  4  6  1  0  0  0  0
  6  7  1  6  0  0  0
  8  7  1  1  0  0  0
  8 26  1  0  0  0  0
  8  9  1  0  0  0  0
  9 10  1  6  0  0  0
  9 11  1  0  0  0  0
 11 12  1  0  0  0  0
 12 13  1  6  0  0  0
 12 14  1  0  0  0  0
 14 15  1  1  0  0  0
 16 15  1  6  0  0  0
 16 21  1  0  0  0  0
 16 17  1  0  0  0  0
 17 18  1  0  0  0  0
 18 19  1  1  0  0  0
 19 20  1  0  0  0  0
 20 21  1  0  0  0  0
 21 22  1  6  0  0  0
 18 23  1  0  0  0  0
 23 24  1  0  0  0  0
 23 25  1  1  0  0  0
 14 26  1  0  0  0  0
 26 27  1  6  0  0  0
  6 28  1  0  0  0  0
 28 29  1  0  0  0  0
 29 30  1  0  0  0  0
 30 31  1  0  0  0  0
 30 32  1  1  0  0  0
M  END
>  <Name>
Gentamicin

>  <CAS #>
1403-66-3

>  <human Clearance (mL/min/kg)>
1.0

>  <Primary mechanism (metabolic, biliary or renal)>
renal

>  <seqId>
418.0

>  <Code (mechanism and clearance degree index)>
R1

>  < Five M1 and R1 test groups>
R1_5

>  <formamide>
0

>  <prodrug phosphates>
0

>  <VolSurf_V>
930.375

>  <VolSurf_S>
629.703

>  <VolSurf_R>
1.47748

>  <VolSurf_G>
1.59705

>  <VolSurf_IW1>
0.0626769

>  <VolSurf_IW2>
0.103509

>  <VolSurf_IW3>
0.190743

>  <VolSurf_IW4>
0.29837

>  <VolSurf_ID1>
0.0263062

>  <VolSurf_ID2>
0.146163

>  <VolSurf_ID3>
0.0

>  <VolSurf_ID4>
0.0

>  <VolSurf_HL1>
157.2

>  <VolSurf_HL2>
315.75

>  <VolSurf_A>
5.6606

>  <VolSurf_CP>
0.00576171

>  <VolSurf_POL>
53.1351

>  <VolSurf_MW>
466.592

>  <VolSurf_FLEX>
1.95998

>  <VolSurf_FLEX_RB>
0.122499

>  <VolSurf_NCC>
3.0

>  <VolSurf_LOGP n-Oct>
-4.063

>  <VolSurf_LOGP c-Hex>
-2.482

>  <VolSurf_PSA>
255.65

>  <VolSurf_HSA>
374.053

>  <VolSurf_PSAR>
0.405985

>  <VolSurf_PHSAR>
0.68346

>  <VolSurf_LgD5>
-9.0

>  <VolSurf_LgD6>
-9.0

>  <VolSurf_LgD7>
-8.17957

>  <VolSurf_LgD7.5>
-6.84681

>  <VolSurf_LgD8>
-5.73914

>  <VolSurf_LgD9>
-4.42716

>  <VolSurf_LgD10>
-4.10694

>  <VolSurf_AUS7.4>
0.0

>  <VolSurf_%FU4>
2.01764E-15

>  <VolSurf_%FU5>
8.95795E-11

>  <VolSurf_%FU6>
1.20376E-6

>  <VolSurf_%FU7>
0.00490536

>  <VolSurf_%FU8>
1.99864

>  <VolSurf_%FU9>
43.0002

>  <VolSurf_%FU10>
90.3289

>  <ID>
209

>  <MOKAID>
210

>  <Clearance Route>
renal

>  <PC1>
-6.8977699999999995

>  <PC2>
-0.694526

$$$$
Ginkgolide A
  -OEChem-08301611272D

 32 37  0     1  0  0  0  0  0999 V2000
   -0.1111   -1.8151    0.0000 C   0  0  0  0  0  0  0  0  0  0  0  0
   -0.5191   -0.9021    0.0000 C   0  0  2  0  0  0  0  0  0  0  0  0
   -0.0000   -0.0000    0.0000 C   0  0  0  0  0  0  0  0  0  0  0  0
    0.9944    0.1060    0.0000 O   0  0  0  0  0  0  0  0  0  0  0  0
   -0.6977    0.7726    0.0000 O   0  0  0  0  0  0  0  0  0  0  0  0
   -1.6482    0.3479    0.0000 C   0  0  1  0  0  0  0  0  0  0  0  0
   -2.6667    0.5629    0.0000 C   0  0  0  0  0  0  0  0  0  0  0  0
   -3.1594   -0.3685    0.0000 C   0  0  1  0  0  0  0  0  0  0  0  0
   -3.7274   -1.2393    0.0000 C   0  0  1  0  0  0  0  0  0  0  0  0
   -3.7274    0.8197    0.0000 C   0  0  0  0  0  0  0  0  0  0  0  0
   -4.9975    0.3253    0.0000 C   0  0  1  0  0  0  0  0  0  0  0  0
   -6.6195    0.9822    0.0000 C   0  0  0  0  0  0  0  0  0  0  0  0
   -6.9949    0.0554    0.0000 C   0  0  0  0  0  0  0  0  0  0  0  0
   -6.2441    1.9091    0.0000 C   0  0  0  0  0  0  0  0  0  0  0  0
   -7.5464    1.3576    0.0000 C   0  0  0  0  0  0  0  0  0  0  0  0
   -4.4721   -0.8205    0.0000 C   0  0  3  0  0  0  0  0  0  0  0  0
   -4.2909   -1.8857    0.0000 C   0  0  1  0  0  0  0  0  0  0  0  0
   -5.2199   -2.3298    0.0000 O   0  0  0  0  0  0  0  0  0  0  0  0
   -5.9642   -1.6022    0.0000 C   0  0  0  0  0  0  0  0  0  0  0  0
   -6.9501   -1.7698    0.0000 O   0  0  0  0  0  0  0  0  0  0  0  0
   -5.5020   -0.6693    0.0000 C   0  0  2  0  0  0  0  0  0  0  0  0
   -5.9660    0.2165    0.0000 O   0  0  0  0  0  0  0  0  0  0  0  0
   -3.2708   -1.9759    0.0000 O   0  0  0  0  0  0  0  0  0  0  0  0
   -2.4881   -1.1120    0.0000 C   0  0  3  0  0  0  0  0  0  0  0  0
   -2.5926   -2.1065    0.0000 C   0  0  0  0  0  0  0  0  0  0  0  0
   -1.8242   -2.7465    0.0000 O   0  0  0  0  0  0  0  0  0  0  0  0
   -3.7274   -2.4409    0.0000 O   0  0  0  0  0  0  0  0  0  0  0  0
   -1.5378   -0.6871    0.0000 C   0  0  1  0  0  0  0  0  0  0  0  0
   -1.4318   -1.6815    0.0000 O   0  0  0  0  0  0  0  0  0  0  0  0
   -1.7541    1.3423    0.0000 H   0  0  0  0  0  0  0  0  0  0  0  0
   -4.7274   -1.2393    0.0000 H   0  0  0  0  0  0  0  0  0  0  0  0
   -4.1130   -2.8697    0.0000 H   0  0  0  0  0  0  0  0  0  0  0  0
  2  1  1  1  0  0  0
  2 28  1  0  0  0  0
  2  3  1  0  0  0  0
  3  4  2  0  0  0  0
  3  5  1  0  0  0  0
  5  6  1  0  0  0  0
  6 28  1  0  0  0  0
  6  7  1  0  0  0  0
  8  7  1  1  0  0  0
  8 16  1  0  0  0  0
  8 24  1  0  0  0  0
  8  9  1  0  0  0  0
  9 27  1  0  0  0  0
  9 10  1  0  0  0  0
 10 11  1  0  0  0  0
 11 12  1  6  0  0  0
 12 13  1  0  0  0  0
 12 14  1  0  0  0  0
 12 15  1  0  0  0  0
 11 16  1  0  0  0  0
 16 21  1  0  0  0  0
 16 17  1  0  0  0  0
 17 18  1  0  0  0  0
 18 19  1  0  0  0  0
 19 20  2  0  0  0  0
 19 21  1  0  0  0  0
 21 22  1  6  0  0  0
 17 23  1  0  0  0  0
 23 24  1  0  0  0  0
 24 25  1  0  0  0  0
 25 26  2  0  0  0  0
 25 27  1  0  0  0  0
 24 28  1  0  0  0  0
 28 29  1  1  0  0  0
  6 30  1  1  0  0  0
  9 31  1  1  0  0  0
 17 32  1  1  0  0  0
M  END
>  <Name>
Ginkgolide A

>  <CAS #>
15291-75-5

>  <human Clearance (mL/min/kg)>
2.3

>  <Primary mechanism (metabolic, biliary or renal)>
renal

>  <seqId>
421.0

>  <Code (mechanism and clearance degree index)>
R1

>  < Five M1 and R1 test groups>
R1_4

>  <formamide>
0

>  <prodrug phosphates>
0

>  <VolSurf_V>
741.0

>  <VolSurf_S>
473.851

>  <VolSurf_R>
1.56378

>  <VolSurf_G>
1.30894

>  <VolSurf_IW1>
0.0950958

>  <VolSurf_IW2>
0.18123

>  <VolSurf_IW3>
0.357352

>  <VolSurf_IW4>
0.504184

>  <VolSurf_ID1>
0.0746155

>  <VolSurf_ID2>
0.184778

>  <VolSurf_ID3>
0.0

>  <VolSurf_ID4>
0.0

>  <VolSurf_HL1>
42.1143

>  <VolSurf_HL2>
127.667

>  <VolSurf_A>
7.81376

>  <VolSurf_CP>
0.0186323

>  <VolSurf_POL>
36.91

>  <VolSurf_MW>
408.399

>  <VolSurf_FLEX>
0.205384

>  <VolSurf_FLEX_RB>
0.0293406

>  <VolSurf_NCC>
0.0

>  <VolSurf_LOGP n-Oct>
-3.338

>  <VolSurf_LOGP c-Hex>
-1.122

>  <VolSurf_PSA>
131.89

>  <VolSurf_HSA>
341.961

>  <VolSurf_PSAR>
0.278336

>  <VolSurf_PHSAR>
0.385687

>  <VolSurf_LgD5>
-3.33811

>  <VolSurf_LgD6>
-3.33908

>  <VolSurf_LgD7>
-3.34872

>  <VolSurf_LgD7.5>
-3.37104

>  <VolSurf_LgD8>
-3.4349

>  <VolSurf_LgD9>
-3.8818

>  <VolSurf_LgD10>
-4.74966

>  <VolSurf_AUS7.4>
1.97676

>  <VolSurf_%FU4>
99.9975

>  <VolSurf_%FU5>
99.975

>  <VolSurf_%FU6>
99.7506

>  <VolSurf_%FU7>
97.5604

>  <VolSurf_%FU8>
79.996

>  <VolSurf_%FU9>
28.5664

>  <VolSurf_%FU10>
3.84522

>  <ID>
210

>  <MOKAID>
211

>  <Clearance Route>
renal

>  <PC1>
-1.9868299999999999

>  <PC2>
1.45066

$$$$
Gliclazide
  -OEChem-08301611272D

 24 26  0     1  0  0  0  0  0999 V2000
    2.4914   -0.8227    0.0000 C   0  0  0  0  0  0  0  0  0  0  0  0
    1.5367   -0.5072    0.0000 C   0  0  2  0  0  0  0  0  0  0  0  0
    1.5412    0.4929    0.0000 C   0  0  1  0  0  0  0  0  0  0  0  0
    2.4997    0.8042    0.0000 C   0  0  0  0  0  0  0  0  0  0  0  0
    3.0866   -0.0122    0.0000 N   0  0  0  0  0  0  0  0  0  0  0  0
    4.0866   -0.0173    0.0000 N   0  0  0  0  0  0  0  0  0  0  0  0
    4.5910    0.8462    0.0000 C   0  0  0  0  0  0  0  0  0  0  0  0
    5.5910    0.8412    0.0000 N   0  0  0  0  0  0  0  0  0  0  0  0
    6.0953    1.7046    0.0000 S   0  0  0  0  0  0  0  0  0  0  0  0
    6.5997    2.5681    0.0000 C   0  0  0  0  0  0  0  0  0  0  0  0
    6.0990    3.4397    0.0000 C   0  0  0  0  0  0  0  0  0  0  0  0
    6.6033    4.3032    0.0000 C   0  0  0  0  0  0  0  0  0  0  0  0
    7.6033    4.3040    0.0000 C   0  0  0  0  0  0  0  0  0  0  0  0
    8.1039    5.1697    0.0000 C   0  0  0  0  0  0  0  0  0  0  0  0
    8.1041    3.4324    0.0000 C   0  0  0  0  0  0  0  0  0  0  0  0
    7.6048    2.5601    0.0000 C   0  0  0  0  0  0  0  0  0  0  0  0
    5.2318    2.2090    0.0000 O   0  0  0  0  0  0  0  0  0  0  0  0
    6.9588    1.2003    0.0000 O   0  0  0  0  0  0  0  0  0  0  0  0
    4.0954    1.7148    0.0000 O   0  0  0  0  0  0  0  0  0  0  0  0
    0.5916    0.8063    0.0000 C   0  0  0  0  0  0  0  0  0  0  0  0
   -0.0000    0.0000    0.0000 C   0  0  0  0  0  0  0  0  0  0  0  0
    0.5841   -0.8118    0.0000 C   0  0  0  0  0  0  0  0  0  0  0  0
    1.5319   -1.5072    0.0000 H   0  0  0  0  0  0  0  0  0  0  0  0
    1.5436    1.4929    0.0000 H   0  0  0  0  0  0  0  0  0  0  0  0
  1  5  1  0  0  0  0
  1  2  1  0  0  0  0
  2 22  1  0  0  0  0
  2  3  1  0  0  0  0
  3  4  1  0  0  0  0
  4  5  1  0  0  0  0
  5  6  1  0  0  0  0
  6  7  1  0  0  0  0
  7  8  1  0  0  0  0
  8  9  1  0  0  0  0
  9 10  1  0  0  0  0
 10 16  2  0  0  0  0
 10 11  1  0  0  0  0
 11 12  2  0  0  0  0
 12 13  1  0  0  0  0
 13 14  1  0  0  0  0
 13 15  2  0  0  0  0
 15 16  1  0  0  0  0
  9 17  2  0  0  0  0
  9 18  2  0  0  0  0
  7 19  2  0  0  0  0
  3 20  1  0  0  0  0
 20 21  1  0  0  0  0
 21 22  1  0  0  0  0
  2 23  1  6  0  0  0
  3 24  1  1  0  0  0
M  END
>  <Name>
Gliclazide

>  <CAS #>
21187-98-4

>  <human Clearance (mL/min/kg)>
0.41

>  <Primary mechanism (metabolic, biliary or renal)>
metabolic

>  <seqId>
425.0

>  <Code (mechanism and clearance degree index)>
M1

>  < Five M1 and R1 test groups>
M1_5

>  <formamide>
0

>  <prodrug phosphates>
0

>  <VolSurf_V>
719.875

>  <VolSurf_S>
514.56

>  <VolSurf_R>
1.39901

>  <VolSurf_G>
1.52465

>  <VolSurf_IW1>
0.0867461

>  <VolSurf_IW2>
0.249047

>  <VolSurf_IW3>
0.473956

>  <VolSurf_IW4>
0.881155

>  <VolSurf_ID1>
0.0307639

>  <VolSurf_ID2>
0.0883117

>  <VolSurf_ID3>
0.174052

>  <VolSurf_ID4>
0.366762

>  <VolSurf_HL1>
3.86905

>  <VolSurf_HL2>
5.29762

>  <VolSurf_A>
4.57796

>  <VolSurf_CP>
0.444681

>  <VolSurf_POL>
33.488

>  <VolSurf_MW>
322.402

>  <VolSurf_FLEX>
1.74758

>  <VolSurf_FLEX_RB>
0.349516

>  <VolSurf_NCC>
1.0

>  <VolSurf_LOGP n-Oct>
1.658

>  <VolSurf_LOGP c-Hex>
-0.779

>  <VolSurf_PSA>
74.86

>  <VolSurf_HSA>
439.7

>  <VolSurf_PSAR>
0.145484

>  <VolSurf_PHSAR>
0.170252

>  <VolSurf_LgD5>
1.59617

>  <VolSurf_LgD6>
1.33313

>  <VolSurf_LgD7>
0.576939

>  <VolSurf_LgD7.5>
0.105499

>  <VolSurf_LgD8>
-0.376007

>  <VolSurf_LgD9>
-1.25688

>  <VolSurf_LgD10>
-1.73312

>  <VolSurf_AUS7.4>
0.61953

>  <VolSurf_%FU4>
69.8218

>  <VolSurf_%FU5>
86.7264

>  <VolSurf_%FU6>
47.3126

>  <VolSurf_%FU7>
8.26834

>  <VolSurf_%FU8>
0.893343

>  <VolSurf_%FU9>
0.0900584

>  <VolSurf_%FU10>
0.00901315

>  <ID>
211

>  <MOKAID>
212

>  <Clearance Route>
uncertain

>  <PC1>
0.467787

>  <PC2>
0.27919299999999997

$$$$
Glimepiride
  -OEChem-08301611272D

 34 36  0     1  0  0  0  0  0999 V2000
    0.1790   -1.7228    0.0000 C   0  0  0  0  0  0  0  0  0  0  0  0
    0.5868   -0.8097    0.0000 C   0  0  0  0  0  0  0  0  0  0  0  0
    0.0000    0.0000    0.0000 C   0  0  0  0  0  0  0  0  0  0  0  0
   -1.0015    0.0000    0.0000 C   0  0  0  0  0  0  0  0  0  0  0  0
   -1.5904   -0.8082    0.0000 C   0  0  0  0  0  0  0  0  0  0  0  0
   -1.3080    0.9519    0.0000 C   0  0  0  0  0  0  0  0  0  0  0  0
   -0.5007    1.5428    0.0000 N   0  0  0  0  0  0  0  0  0  0  0  0
   -0.5022    2.5428    0.0000 C   0  0  0  0  0  0  0  0  0  0  0  0
    0.3630    3.0441    0.0000 O   0  0  0  0  0  0  0  0  0  0  0  0
   -1.3690    3.0415    0.0000 N   0  0  0  0  0  0  0  0  0  0  0  0
   -1.3705    4.0415    0.0000 C   0  0  0  0  0  0  0  0  0  0  0  0
   -2.2373    4.5401    0.0000 C   0  0  0  0  0  0  0  0  0  0  0  0
   -2.2389    5.5401    0.0000 C   0  0  0  0  0  0  0  0  0  0  0  0
   -3.1116    6.0388    0.0000 C   0  0  0  0  0  0  0  0  0  0  0  0
   -3.1132    7.0389    0.0000 C   0  0  0  0  0  0  0  0  0  0  0  0
   -2.2509    7.5453    0.0000 C   0  0  0  0  0  0  0  0  0  0  0  0
   -1.3781    7.0466    0.0000 C   0  0  0  0  0  0  0  0  0  0  0  0
   -1.3677    6.0415    0.0000 C   0  0  0  0  0  0  0  0  0  0  0  0
   -2.2568    8.5453    0.0000 S   0  0  0  0  0  0  0  0  0  0  0  0
   -3.2568    8.5393    0.0000 O   0  0  0  0  0  0  0  0  0  0  0  0
   -1.2568    8.5512    0.0000 O   0  0  0  0  0  0  0  0  0  0  0  0
   -2.2627    9.5452    0.0000 N   0  0  0  0  0  0  0  0  0  0  0  0
   -3.1317   10.0401    0.0000 C   0  0  0  0  0  0  0  0  0  0  0  0
   -3.9947    9.5350    0.0000 O   0  0  0  0  0  0  0  0  0  0  0  0
   -3.1376   11.0401    0.0000 N   0  0  0  0  0  0  0  0  0  0  0  0
   -4.0066   11.5349    0.0000 C   0  0  2  0  0  0  0  0  0  0  0  0
   -4.8726   11.0246    0.0000 C   0  0  0  0  0  0  0  0  0  0  0  0
   -5.7417   11.5194    0.0000 C   0  0  0  0  0  0  0  0  0  0  0  0
   -5.7534   12.5194    0.0000 C   0  0  1  0  0  0  0  0  0  0  0  0
   -6.6246   13.0104    0.0000 C   0  0  0  0  0  0  0  0  0  0  0  0
   -4.8874   13.0297    0.0000 C   0  0  0  0  0  0  0  0  0  0  0  0
   -4.0096   12.5401    0.0000 C   0  0  0  0  0  0  0  0  0  0  0  0
    0.3118    0.9519    0.0000 C   0  0  0  0  0  0  0  0  0  0  0  0
    1.2633    1.2596    0.0000 O   0  0  0  0  0  0  0  0  0  0  0  0
  1  2  1  0  0  0  0
  2  3  1  0  0  0  0
  3 33  1  0  0  0  0
  3  4  2  0  0  0  0
  4  5  1  0  0  0  0
  4  6  1  0  0  0  0
  6  7  1  0  0  0  0
  7  8  1  0  0  0  0
  8  9  2  0  0  0  0
  8 10  1  0  0  0  0
 10 11  1  0  0  0  0
 11 12  1  0  0  0  0
 12 13  1  0  0  0  0
 13 18  2  0  0  0  0
 13 14  1  0  0  0  0
 14 15  2  0  0  0  0
 15 16  1  0  0  0  0
 16 17  2  0  0  0  0
 17 18  1  0  0  0  0
 16 19  1  0  0  0  0
 19 20  2  0  0  0  0
 19 21  2  0  0  0  0
 19 22  1  0  0  0  0
 22 23  1  0  0  0  0
 23 24  2  0  0  0  0
 23 25  1  0  0  0  0
 26 25  1  6  0  0  0
 26 32  1  0  0  0  0
 26 27  1  0  0  0  0
 27 28  1  0  0  0  0
 28 29  1  0  0  0  0
 29 30  1  1  0  0  0
 29 31  1  0  0  0  0
 31 32  1  0  0  0  0
  7 33  1  0  0  0  0
 33 34  2  0  0  0  0
M  END
>  <Name>
Glimepiride

>  <CAS #>
93479-97-1

>  <human Clearance (mL/min/kg)>
0.5

>  <Primary mechanism (metabolic, biliary or renal)>
metabolic

>  <seqId>
426.0

>  <Code (mechanism and clearance degree index)>
M1

>  < Five M1 and R1 test groups>
M1_1

>  <formamide>
0

>  <prodrug phosphates>
0

>  <VolSurf_V>
1086.5

>  <VolSurf_S>
734.049

>  <VolSurf_R>
1.48015

>  <VolSurf_G>
1.7212

>  <VolSurf_IW1>
0.0594097

>  <VolSurf_IW2>
0.167769

>  <VolSurf_IW3>
0.312055

>  <VolSurf_IW4>
0.347048

>  <VolSurf_ID1>
0.0278722

>  <VolSurf_ID2>
0.107986

>  <VolSurf_ID3>
0.227338

>  <VolSurf_ID4>
0.286121

>  <VolSurf_HL1>
3.02404

>  <VolSurf_HL2>
2.23849

>  <VolSurf_A>
5.31923

>  <VolSurf_CP>
0.415228

>  <VolSurf_POL>
51.004

>  <VolSurf_MW>
489.608

>  <VolSurf_FLEX>
3.92138

>  <VolSurf_FLEX_RB>
0.301645

>  <VolSurf_NCC>
1.0

>  <VolSurf_LOGP n-Oct>
4.208

>  <VolSurf_LOGP c-Hex>
-0.899

>  <VolSurf_PSA>
120.8

>  <VolSurf_HSA>
613.249

>  <VolSurf_PSAR>
0.164567

>  <VolSurf_PHSAR>
0.196984

>  <VolSurf_LgD5>
4.02902

>  <VolSurf_LgD6>
3.42319

>  <VolSurf_LgD7>
2.49874

>  <VolSurf_LgD7.5>
2.01914

>  <VolSurf_LgD8>
1.56433

>  <VolSurf_LgD9>
0.917358

>  <VolSurf_LgD10>
0.734064

>  <VolSurf_AUS7.4>
0.168549

>  <VolSurf_%FU4>
95.1452

>  <VolSurf_%FU5>
66.2141

>  <VolSurf_%FU6>
16.3867

>  <VolSurf_%FU7>
1.92214

>  <VolSurf_%FU8>
0.195598

>  <VolSurf_%FU9>
0.0195941

>  <VolSurf_%FU10>
0.00195958

>  <ID>
212

>  <MOKAID>
213

>  <Clearance Route>
possible billary

>  <PC1>
1.01348

>  <PC2>
-2.8501

$$$$
Glipizide
  -OEChem-08301611272D

 31 33  0     0  0  0  0  0  0999 V2000
    0.8675    1.5026    0.0000 C   0  0  0  0  0  0  0  0  0  0  0  0
    0.0000    1.0051    0.0000 C   0  0  0  0  0  0  0  0  0  0  0  0
    0.0000    0.0000    0.0000 C   0  0  0  0  0  0  0  0  0  0  0  0
   -0.8674   -0.4976    0.0000 N   0  0  0  0  0  0  0  0  0  0  0  0
   -1.7348   -0.0000    0.0000 C   0  0  0  0  0  0  0  0  0  0  0  0
   -1.7348    1.0051    0.0000 C   0  0  0  0  0  0  0  0  0  0  0  0
   -0.8674    1.5126    0.0000 N   0  0  0  0  0  0  0  0  0  0  0  0
   -2.6001   -0.5012    0.0000 C   0  0  0  0  0  0  0  0  0  0  0  0
   -3.4668   -0.0024    0.0000 O   0  0  0  0  0  0  0  0  0  0  0  0
   -2.5987   -1.5012    0.0000 N   0  0  0  0  0  0  0  0  0  0  0  0
   -3.4641   -2.0024    0.0000 C   0  0  0  0  0  0  0  0  0  0  0  0
   -3.4627   -3.0024    0.0000 C   0  0  0  0  0  0  0  0  0  0  0  0
   -4.3280   -3.5036    0.0000 C   0  0  0  0  0  0  0  0  0  0  0  0
   -4.3237   -4.5088    0.0000 C   0  0  0  0  0  0  0  0  0  0  0  0
   -5.1890   -5.0100    0.0000 C   0  0  0  0  0  0  0  0  0  0  0  0
   -6.0587   -4.5163    0.0000 C   0  0  0  0  0  0  0  0  0  0  0  0
   -6.0630   -3.5111    0.0000 C   0  0  0  0  0  0  0  0  0  0  0  0
   -5.1977   -2.9997    0.0000 C   0  0  0  0  0  0  0  0  0  0  0  0
   -6.9218   -5.0213    0.0000 S   0  0  0  0  0  0  0  0  0  0  0  0
   -6.4168   -5.8844    0.0000 O   0  0  0  0  0  0  0  0  0  0  0  0
   -7.4268   -4.1582    0.0000 O   0  0  0  0  0  0  0  0  0  0  0  0
   -7.7849   -5.5263    0.0000 N   0  0  0  0  0  0  0  0  0  0  0  0
   -7.7791   -6.5263    0.0000 C   0  0  0  0  0  0  0  0  0  0  0  0
   -6.9102   -7.0213    0.0000 O   0  0  0  0  0  0  0  0  0  0  0  0
   -8.6422   -7.0313    0.0000 N   0  0  0  0  0  0  0  0  0  0  0  0
   -8.6364   -8.0313    0.0000 C   0  0  0  0  0  0  0  0  0  0  0  0
   -7.7616   -8.5262    0.0000 C   0  0  0  0  0  0  0  0  0  0  0  0
   -7.7557   -9.5263    0.0000 C   0  0  0  0  0  0  0  0  0  0  0  0
   -8.6159  -10.0363    0.0000 C   0  0  0  0  0  0  0  0  0  0  0  0
   -9.4908   -9.5413    0.0000 C   0  0  0  0  0  0  0  0  0  0  0  0
   -9.5055   -8.5363    0.0000 C   0  0  0  0  0  0  0  0  0  0  0  0
  1  2  1  0  0  0  0
  2  7  2  0  0  0  0
  2  3  1  0  0  0  0
  3  4  2  0  0  0  0
  4  5  1  0  0  0  0
  5  6  2  0  0  0  0
  6  7  1  0  0  0  0
  5  8  1  0  0  0  0
  8  9  2  0  0  0  0
  8 10  1  0  0  0  0
 10 11  1  0  0  0  0
 11 12  1  0  0  0  0
 12 13  1  0  0  0  0
 13 18  2  0  0  0  0
 13 14  1  0  0  0  0
 14 15  2  0  0  0  0
 15 16  1  0  0  0  0
 16 17  2  0  0  0  0
 17 18  1  0  0  0  0
 16 19  1  0  0  0  0
 19 20  2  0  0  0  0
 19 21  2  0  0  0  0
 19 22  1  0  0  0  0
 22 23  1  0  0  0  0
 23 24  2  0  0  0  0
 23 25  1  0  0  0  0
 25 26  1  0  0  0  0
 26 31  1  0  0  0  0
 26 27  1  0  0  0  0
 27 28  1  0  0  0  0
 28 29  1  0  0  0  0
 29 30  1  0  0  0  0
 30 31  1  0  0  0  0
M  END
>  <Name>
Glipizide

>  <CAS #>
29094-61-9

>  <human Clearance (mL/min/kg)>
0.56

>  <Primary mechanism (metabolic, biliary or renal)>
metabolic

>  <seqId>
427.0

>  <Code (mechanism and clearance degree index)>
M1

>  < Five M1 and R1 test groups>
M1_1

>  <formamide>
0

>  <prodrug phosphates>
0

>  <VolSurf_V>
969.875

>  <VolSurf_S>
675.112

>  <VolSurf_R>
1.43661

>  <VolSurf_G>
1.70068

>  <VolSurf_IW1>
0.0492056

>  <VolSurf_IW2>
0.121237

>  <VolSurf_IW3>
0.225543

>  <VolSurf_IW4>
0.343243

>  <VolSurf_ID1>
0.0254362

>  <VolSurf_ID2>
0.174959

>  <VolSurf_ID3>
0.314952

>  <VolSurf_ID4>
0.416862

>  <VolSurf_HL1>
3.33251

>  <VolSurf_HL2>
2.36402

>  <VolSurf_A>
5.51444

>  <VolSurf_CP>
0.265313

>  <VolSurf_POL>
46.095

>  <VolSurf_MW>
444.527

>  <VolSurf_FLEX>
3.646

>  <VolSurf_FLEX_RB>
0.3646

>  <VolSurf_NCC>
1.0

>  <VolSurf_LOGP n-Oct>
2.102

>  <VolSurf_LOGP c-Hex>
-2.763

>  <VolSurf_PSA>
125.98

>  <VolSurf_HSA>
549.132

>  <VolSurf_PSAR>
0.186606

>  <VolSurf_PHSAR>
0.229417

>  <VolSurf_LgD5>
1.92264

>  <VolSurf_LgD6>
1.31718

>  <VolSurf_LgD7>
0.392725

>  <VolSurf_LgD7.5>
-0.0868947

>  <VolSurf_LgD8>
-0.541795

>  <VolSurf_LgD9>
-1.18988

>  <VolSurf_LgD10>
-1.38407

>  <VolSurf_AUS7.4>
0.168533

>  <VolSurf_%FU4>
93.9537

>  <VolSurf_%FU5>
66.1557

>  <VolSurf_%FU6>
16.3863

>  <VolSurf_%FU7>
1.92209

>  <VolSurf_%FU8>
0.195542

>  <VolSurf_%FU9>
0.0195378

>  <VolSurf_%FU10>
0.00190468

>  <ID>
213

>  <MOKAID>
214

>  <Clearance Route>
possible billary

>  <PC1>
-0.592561

>  <PC2>
-1.7692299999999999

$$$$
Gludopa
  -OEChem-08301611272D

 23 23  0     1  0  0  0  0  0999 V2000
    1.7350   -0.0000    0.0000 C   0  0  0  0  0  0  0  0  0  0  0  0
    0.8675    0.5077    0.0000 C   0  0  0  0  0  0  0  0  0  0  0  0
    0.0000    0.0000    0.0000 C   0  0  0  0  0  0  0  0  0  0  0  0
   -0.8675    0.4974    0.0000 C   0  0  0  0  0  0  0  0  0  0  0  0
   -1.7320   -0.0051    0.0000 C   0  0  2  0  0  0  0  0  0  0  0  0
   -2.5995    0.4923    0.0000 N   0  0  0  0  0  0  0  0  0  0  0  0
   -2.6025    1.4923    0.0000 C   0  0  0  0  0  0  0  0  0  0  0  0
   -1.7379    1.9949    0.0000 O   0  0  0  0  0  0  0  0  0  0  0  0
   -3.4700    1.9898    0.0000 C   0  0  0  0  0  0  0  0  0  0  0  0
   -3.4729    2.9898    0.0000 C   0  0  0  0  0  0  0  0  0  0  0  0
   -4.3404    3.4872    0.0000 C   0  0  1  0  0  0  0  0  0  0  0  0
   -4.3434    4.4872    0.0000 C   0  0  0  0  0  0  0  0  0  0  0  0
   -5.2109    4.9846    0.0000 O   0  0  0  0  0  0  0  0  0  0  0  0
   -3.4788    4.9898    0.0000 O   0  0  0  0  0  0  0  0  0  0  0  0
   -5.2050    2.9847    0.0000 N   0  0  0  0  0  0  0  0  0  0  0  0
   -1.7291   -1.0051    0.0000 C   0  0  0  0  0  0  0  0  0  0  0  0
   -2.5936   -1.5077    0.0000 O   0  0  0  0  0  0  0  0  0  0  0  0
   -0.8616   -1.5025    0.0000 O   0  0  0  0  0  0  0  0  0  0  0  0
   -0.0000   -1.0052    0.0000 C   0  0  0  0  0  0  0  0  0  0  0  0
    0.8675   -1.5027    0.0000 C   0  0  0  0  0  0  0  0  0  0  0  0
    1.7350   -1.0052    0.0000 C   0  0  0  0  0  0  0  0  0  0  0  0
    2.6003   -1.5065    0.0000 O   0  0  0  0  0  0  0  0  0  0  0  0
    2.6025    0.4974    0.0000 O   0  0  0  0  0  0  0  0  0  0  0  0
  1 21  2  0  0  0  0
  1  2  1  0  0  0  0
  2  3  2  0  0  0  0
  3  4  1  0  0  0  0
  5  4  1  1  0  0  0
  5  6  1  0  0  0  0
  6  7  1  0  0  0  0
  7  8  2  0  0  0  0
  7  9  1  0  0  0  0
  9 10  1  0  0  0  0
 10 11  1  0  0  0  0
 11 12  1  0  0  0  0
 12 13  1  0  0  0  0
 12 14  2  0  0  0  0
 11 15  1  6  0  0  0
  5 16  1  0  0  0  0
 16 17  1  0  0  0  0
 16 18  2  0  0  0  0
  3 19  1  0  0  0  0
 19 20  2  0  0  0  0
 20 21  1  0  0  0  0
 21 22  1  0  0  0  0
  1 23  1  0  0  0  0
M  END
>  <Name>
Gludopa

>  <CAS #>
52370-58-8

>  <human Clearance (mL/min/kg)>
4.6

>  <Primary mechanism (metabolic, biliary or renal)>
renal

>  <seqId>
428.0

>  <Code (mechanism and clearance degree index)>
R1

>  < Five M1 and R1 test groups>
R1_5

>  <formamide>
0

>  <prodrug phosphates>
0

>  <VolSurf_V>
677.625

>  <VolSurf_S>
492.39

>  <VolSurf_R>
1.3762

>  <VolSurf_G>
1.51617

>  <VolSurf_IW1>
0.0936512

>  <VolSurf_IW2>
0.18415

>  <VolSurf_IW3>
0.380663

>  <VolSurf_IW4>
0.682905

>  <VolSurf_ID1>
0.121657

>  <VolSurf_ID2>
0.223941

>  <VolSurf_ID3>
0.289969

>  <VolSurf_ID4>
0.420549

>  <VolSurf_HL1>
18.75

>  <VolSurf_HL2>
20.4262

>  <VolSurf_A>
6.64432

>  <VolSurf_CP>
0.0583686

>  <VolSurf_POL>
31.166

>  <VolSurf_MW>
325.294

>  <VolSurf_FLEX>
2.96134

>  <VolSurf_FLEX_RB>
0.269213

>  <VolSurf_NCC>
3.0

>  <VolSurf_LOGP n-Oct>
-1.118

>  <VolSurf_LOGP c-Hex>
-8.061

>  <VolSurf_PSA>
196.41

>  <VolSurf_HSA>
295.98

>  <VolSurf_PSAR>
0.398891

>  <VolSurf_PHSAR>
0.663593

>  <VolSurf_LgD5>
-4.00176

>  <VolSurf_LgD6>
-4.95096

>  <VolSurf_LgD7>
-5.73425

>  <VolSurf_LgD7.5>
-5.9511

>  <VolSurf_LgD8>
-6.06504

>  <VolSurf_LgD9>
-6.31893

>  <VolSurf_LgD10>
-7.2896

>  <VolSurf_AUS7.4>
0.0

>  <VolSurf_%FU4>
0.0

>  <VolSurf_%FU5>
0.0

>  <VolSurf_%FU6>
0.0

>  <VolSurf_%FU7>
0.0

>  <VolSurf_%FU8>
0.0

>  <VolSurf_%FU9>
0.0

>  <VolSurf_%FU10>
0.0

>  <ID>
214

>  <MOKAID>
215

>  <Clearance Route>
renal

>  <PC1>
-5.5799900000000004

>  <PC2>
1.88325

$$$$
Glyburide
  -OEChem-08301611272D

 33 35  0     0  0  0  0  0  0999 V2000
   -3.4670   -0.0025    0.0000 C   0  0  0  0  0  0  0  0  0  0  0  0
   -2.6003   -0.5013    0.0000 O   0  0  0  0  0  0  0  0  0  0  0  0
   -1.7350   -0.0000    0.0000 C   0  0  0  0  0  0  0  0  0  0  0  0
   -0.8675   -0.4975    0.0000 C   0  0  0  0  0  0  0  0  0  0  0  0
    0.0000    0.0000    0.0000 C   0  0  0  0  0  0  0  0  0  0  0  0
   -0.0000    1.0052    0.0000 C   0  0  0  0  0  0  0  0  0  0  0  0
    0.8675    1.5026    0.0000 Cl  0  0  0  0  0  0  0  0  0  0  0  0
   -0.8675    1.5129    0.0000 C   0  0  0  0  0  0  0  0  0  0  0  0
   -1.7350    1.0052    0.0000 C   0  0  0  0  0  0  0  0  0  0  0  0
   -2.6025    1.5026    0.0000 C   0  0  0  0  0  0  0  0  0  0  0  0
   -2.6054    2.5026    0.0000 O   0  0  0  0  0  0  0  0  0  0  0  0
   -3.4670    1.0001    0.0000 N   0  0  0  0  0  0  0  0  0  0  0  0
   -4.3345    1.4975    0.0000 C   0  0  0  0  0  0  0  0  0  0  0  0
   -5.1991    0.9950    0.0000 C   0  0  0  0  0  0  0  0  0  0  0  0
   -6.0666    1.4924    0.0000 C   0  0  0  0  0  0  0  0  0  0  0  0
   -6.9341    0.9847    0.0000 C   0  0  0  0  0  0  0  0  0  0  0  0
   -7.8017    1.4821    0.0000 C   0  0  0  0  0  0  0  0  0  0  0  0
   -7.8105    2.4821    0.0000 C   0  0  0  0  0  0  0  0  0  0  0  0
   -6.9429    2.9898    0.0000 C   0  0  0  0  0  0  0  0  0  0  0  0
   -6.0666    2.4976    0.0000 C   0  0  0  0  0  0  0  0  0  0  0  0
   -8.6802    2.9757    0.0000 S   0  0  0  0  0  0  0  0  0  0  0  0
   -9.1738    2.1060    0.0000 O   0  0  0  0  0  0  0  0  0  0  0  0
   -8.1865    3.8454    0.0000 O   0  0  0  0  0  0  0  0  0  0  0  0
   -9.5498    3.4693    0.0000 N   0  0  0  0  0  0  0  0  0  0  0  0
  -10.4122    2.9630    0.0000 C   0  0  0  0  0  0  0  0  0  0  0  0
  -10.4048    1.9630    0.0000 O   0  0  0  0  0  0  0  0  0  0  0  0
  -11.2818    3.4566    0.0000 N   0  0  0  0  0  0  0  0  0  0  0  0
  -12.1442    2.9503    0.0000 C   0  0  0  0  0  0  0  0  0  0  0  0
  -12.1338    1.9451    0.0000 C   0  0  0  0  0  0  0  0  0  0  0  0
  -12.9961    1.4387    0.0000 C   0  0  0  0  0  0  0  0  0  0  0  0
  -13.8687    1.9272    0.0000 C   0  0  0  0  0  0  0  0  0  0  0  0
  -13.8791    2.9324    0.0000 C   0  0  0  0  0  0  0  0  0  0  0  0
  -13.0169    3.4490    0.0000 C   0  0  0  0  0  0  0  0  0  0  0  0
  1  2  1  0  0  0  0
  2  3  1  0  0  0  0
  3  9  2  0  0  0  0
  3  4  1  0  0  0  0
  4  5  2  0  0  0  0
  5  6  1  0  0  0  0
  6  7  1  0  0  0  0
  6  8  2  0  0  0  0
  8  9  1  0  0  0  0
  9 10  1  0  0  0  0
 10 11  2  0  0  0  0
 10 12  1  0  0  0  0
 12 13  1  0  0  0  0
 13 14  1  0  0  0  0
 14 15  1  0  0  0  0
 15 20  2  0  0  0  0
 15 16  1  0  0  0  0
 16 17  2  0  0  0  0
 17 18  1  0  0  0  0
 18 19  2  0  0  0  0
 19 20  1  0  0  0  0
 18 21  1  0  0  0  0
 21 22  2  0  0  0  0
 21 23  2  0  0  0  0
 21 24  1  0  0  0  0
 24 25  1  0  0  0  0
 25 26  2  0  0  0  0
 25 27  1  0  0  0  0
 27 28  1  0  0  0  0
 28 33  1  0  0  0  0
 28 29  1  0  0  0  0
 29 30  1  0  0  0  0
 30 31  1  0  0  0  0
 31 32  1  0  0  0  0
 32 33  1  0  0  0  0
M  END
>  <Name>
Glyburide

>  <CAS #>
10238-21-8

>  <human Clearance (mL/min/kg)>
0.82

>  <Primary mechanism (metabolic, biliary or renal)>
metabolic

>  <seqId>
430.0

>  <Code (mechanism and clearance degree index)>
M1

>  < Five M1 and R1 test groups>
M1_5

>  <formamide>
0

>  <prodrug phosphates>
0

>  <VolSurf_V>
1056.62

>  <VolSurf_S>
719.129

>  <VolSurf_R>
1.46931

>  <VolSurf_G>
1.71618

>  <VolSurf_IW1>
0.0528624

>  <VolSurf_IW2>
0.174791

>  <VolSurf_IW3>
0.444979

>  <VolSurf_IW4>
0.707798

>  <VolSurf_ID1>
0.0432515

>  <VolSurf_ID2>
0.163353

>  <VolSurf_ID3>
0.253669

>  <VolSurf_ID4>
0.343812

>  <VolSurf_HL1>
2.15678

>  <VolSurf_HL2>
1.49425

>  <VolSurf_A>
8.64899

>  <VolSurf_CP>
0.34633

>  <VolSurf_POL>
50.078

>  <VolSurf_MW>
492.995

>  <VolSurf_FLEX>
4.02612

>  <VolSurf_FLEX_RB>
0.366011

>  <VolSurf_NCC>
1.0

>  <VolSurf_LOGP n-Oct>
4.052

>  <VolSurf_LOGP c-Hex>
0.936

>  <VolSurf_PSA>
112.15

>  <VolSurf_HSA>
606.979

>  <VolSurf_PSAR>
0.155952

>  <VolSurf_PHSAR>
0.184767

>  <VolSurf_LgD5>
3.87302

>  <VolSurf_LgD6>
3.26719

>  <VolSurf_LgD7>
2.34273

>  <VolSurf_LgD7.5>
1.86312

>  <VolSurf_LgD8>
1.40826

>  <VolSurf_LgD9>
0.760661

>  <VolSurf_LgD10>
0.571186

>  <VolSurf_AUS7.4>
0.16854

>  <VolSurf_%FU4>
95.1452

>  <VolSurf_%FU5>
66.2141

>  <VolSurf_%FU6>
16.3866

>  <VolSurf_%FU7>
1.92211

>  <VolSurf_%FU8>
0.195566

>  <VolSurf_%FU9>
0.0195623

>  <VolSurf_%FU10>
0.00192827

>  <ID>
215

>  <MOKAID>
216

>  <Clearance Route>
possible billary

>  <PC1>
1.07416

>  <PC2>
-2.5070200000000002

$$$$
Glycopyrrolate bromide
  -OEChem-08301611272D

 24 25  0     1  0  0  0  0  0999 V2000
    3.4763   -0.6339    0.0000 C   0  0  3  0  0  0  0  0  0  0  0  0
    2.6666   -1.2207    0.0000 C   0  0  0  0  0  0  0  0  0  0  0  0
    2.6644   -2.2223    0.0000 C   0  0  0  0  0  0  0  0  0  0  0  0
    1.7121   -2.5319    0.0000 C   0  0  0  0  0  0  0  0  0  0  0  0
    1.1263   -1.7214    0.0000 C   0  0  0  0  0  0  0  0  0  0  0  0
    1.7114   -0.9101    0.0000 C   0  0  0  0  0  0  0  0  0  0  0  0
    4.0631   -1.4436    0.0000 C   0  0  0  0  0  0  0  0  0  0  0  0
    5.0626   -1.3367    0.0000 C   0  0  0  0  0  0  0  0  0  0  0  0
    5.6495   -2.1465    0.0000 C   0  0  0  0  0  0  0  0  0  0  0  0
    5.2470   -3.0619    0.0000 C   0  0  0  0  0  0  0  0  0  0  0  0
    4.2475   -3.1688    0.0000 C   0  0  0  0  0  0  0  0  0  0  0  0
    3.6505   -2.3601    0.0000 C   0  0  0  0  0  0  0  0  0  0  0  0
    2.8895    0.1759    0.0000 C   0  0  0  0  0  0  0  0  0  0  0  0
    3.2973    1.0889    0.0000 O   0  0  0  0  0  0  0  0  0  0  0  0
    1.8948    0.0725    0.0000 O   0  0  0  0  0  0  0  0  0  0  0  0
    1.3080    0.8822    0.0000 C   0  0  3  0  0  0  0  0  0  0  0  0
    1.6198    1.8341    0.0000 C   0  0  0  0  0  0  0  0  0  0  0  0
    0.8073    2.4250    0.0000 N   0  3  0  0  0  0  0  0  0  0  0  0
    0.0000    1.8341    0.0000 C   0  0  0  0  0  0  0  0  0  0  0  0
    0.3065    0.8822    0.0000 C   0  0  0  0  0  0  0  0  0  0  0  0
    0.1365    3.1667    0.0000 C   0  0  0  0  0  0  0  0  0  0  0  0
    1.4758    3.1688    0.0000 C   0  0  0  0  0  0  0  0  0  0  0  0
    4.2860   -0.0470    0.0000 O   0  0  0  0  0  0  0  0  0  0  0  0
    7.6495    0.0000    0.0000 Br  0  5  0  0  0  0  0  0  0  0  0  0
  1  2  1  0  0  0  0
  2  6  1  0  0  0  0
  2  3  1  0  0  0  0
  3  4  1  0  0  0  0
  4  5  1  0  0  0  0
  5  6  1  0  0  0  0
  1  7  1  0  0  0  0
  7 12  2  0  0  0  0
  7  8  1  0  0  0  0
  8  9  2  0  0  0  0
  9 10  1  0  0  0  0
 10 11  2  0  0  0  0
 11 12  1  0  0  0  0
  1 13  1  0  0  0  0
 13 14  2  0  0  0  0
 13 15  1  0  0  0  0
 15 16  1  0  0  0  0
 16 20  1  0  0  0  0
 16 17  1  0  0  0  0
 17 18  1  0  0  0  0
 18 19  1  0  0  0  0
 19 20  1  0  0  0  0
 18 21  1  0  0  0  0
 18 22  1  0  0  0  0
  1 23  1  0  0  0  0
M  CHG  2  18   1  24  -1
M  END
>  <Name>
Glycopyrrolate bromide

>  <CAS #>
596-51-0

>  <human Clearance (mL/min/kg)>
16.8

>  <Primary mechanism (metabolic, biliary or renal)>
renal

>  <seqId>
431.0

>  <Code (mechanism and clearance degree index)>
R1

>  < Five M1 and R1 test groups>
R1_3

>  <formamide>
0

>  <prodrug phosphates>
0

>  <VolSurf_V>
762.75

>  <VolSurf_S>
501.379

>  <VolSurf_R>
1.5213

>  <VolSurf_G>
1.38402

>  <VolSurf_IW1>
0.0735818

>  <VolSurf_IW2>
0.303696

>  <VolSurf_IW3>
0.711135

>  <VolSurf_IW4>
0.974332

>  <VolSurf_ID1>
0.059551

>  <VolSurf_ID2>
0.163896

>  <VolSurf_ID3>
0.265617

>  <VolSurf_ID4>
0.443091

>  <VolSurf_HL1>
3.31159

>  <VolSurf_HL2>
4.0

>  <VolSurf_A>
6.39055

>  <VolSurf_CP>
0.230578

>  <VolSurf_POL>
35.275

>  <VolSurf_MW>
318.43

>  <VolSurf_FLEX>
1.81903

>  <VolSurf_FLEX_RB>
0.227378

>  <VolSurf_NCC>
1.0

>  <VolSurf_LOGP n-Oct>
-0.229001

>  <VolSurf_LOGP c-Hex>
3.281

>  <VolSurf_PSA>
53.5

>  <VolSurf_HSA>
447.879

>  <VolSurf_PSAR>
0.106706

>  <VolSurf_PHSAR>
0.119452

>  <VolSurf_LgD5>
-0.229001

>  <VolSurf_LgD6>
-0.229001

>  <VolSurf_LgD7>
-0.229001

>  <VolSurf_LgD7.5>
-0.229001

>  <VolSurf_LgD8>
-0.229001

>  <VolSurf_LgD9>
-0.229001

>  <VolSurf_LgD10>
-0.229009

>  <VolSurf_AUS7.4>
0.0

>  <VolSurf_%FU4>
0.0

>  <VolSurf_%FU5>
0.0

>  <VolSurf_%FU6>
0.0

>  <VolSurf_%FU7>
0.0

>  <VolSurf_%FU8>
0.0

>  <VolSurf_%FU9>
0.0

>  <VolSurf_%FU10>
0.0

>  <ID>
216

>  <MOKAID>
217

>  <Clearance Route>
uncertain

>  <PC1>
-0.0344506

>  <PC2>
1.02206

$$$$
Granisetron
  -OEChem-08301611272D

 25 28  0     1  0  0  0  0  0999 V2000
    0.7840    0.0107    0.0000 C   0  0  0  0  0  0  0  0  0  0  0  0
   -0.9657   -0.0215    0.0000 N   0  0  0  0  0  0  0  0  0  0  0  0
   -1.3533    1.3042    0.0000 C   0  0  2  0  0  0  0  0  0  0  0  0
   -0.4065    0.9296    0.0000 C   0  0  0  0  0  0  0  0  0  0  0  0
    0.0000   -0.0000    0.0000 C   0  0  0  0  0  0  0  0  0  0  0  0
   -0.3714   -0.9285    0.0000 C   0  0  0  0  0  0  0  0  0  0  0  0
   -1.2989   -1.3396    0.0000 C   0  0  1  0  0  0  0  0  0  0  0  0
   -2.2483   -0.9718    0.0000 C   0  0  0  0  0  0  0  0  0  0  0  0
   -2.6548   -0.0422    0.0000 C   0  0  2  0  0  0  0  0  0  0  0  0
   -2.2848    0.9024    0.0000 C   0  0  0  0  0  0  0  0  0  0  0  0
   -3.6546   -0.0616    0.0000 N   0  0  0  0  0  0  0  0  0  0  0  0
   -4.1377   -0.9372    0.0000 C   0  0  0  0  0  0  0  0  0  0  0  0
   -3.6209   -1.7934    0.0000 O   0  0  0  0  0  0  0  0  0  0  0  0
   -5.1375   -0.9567    0.0000 C   0  0  0  0  0  0  0  0  0  0  0  0
   -5.7452   -0.1536    0.0000 N   0  0  0  0  0  0  0  0  0  0  0  0
   -6.6967   -0.4835    0.0000 N   0  0  0  0  0  0  0  0  0  0  0  0
   -7.5170    0.0885    0.0000 C   0  0  0  0  0  0  0  0  0  0  0  0
   -6.6772   -1.4903    0.0000 C   0  0  0  0  0  0  0  0  0  0  0  0
   -7.4153   -2.1734    0.0000 C   0  0  0  0  0  0  0  0  0  0  0  0
   -7.1814   -3.1515    0.0000 C   0  0  0  0  0  0  0  0  0  0  0  0
   -6.2189   -3.4436    0.0000 C   0  0  0  0  0  0  0  0  0  0  0  0
   -5.4904   -2.7576    0.0000 C   0  0  0  0  0  0  0  0  0  0  0  0
   -5.7135   -1.7828    0.0000 C   0  0  0  0  0  0  0  0  0  0  0  0
   -1.3685    2.3041    0.0000 H   0  0  0  0  0  0  0  0  0  0  0  0
   -1.2751   -2.3393    0.0000 H   0  0  0  0  0  0  0  0  0  0  0  0
  1  2  1  0  0  0  0
  2  7  1  0  0  0  0
  2  3  1  0  0  0  0
  3 10  1  0  0  0  0
  3  4  1  0  0  0  0
  4  5  1  0  0  0  0
  5  6  1  0  0  0  0
  6  7  1  0  0  0  0
  7  8  1  0  0  0  0
  8  9  1  0  0  0  0
  9 10  1  0  0  0  0
  9 11  1  1  0  0  0
 11 12  1  0  0  0  0
 12 13  2  0  0  0  0
 12 14  1  0  0  0  0
 14 23  1  0  0  0  0
 14 15  2  0  0  0  0
 15 16  1  0  0  0  0
 16 17  1  0  0  0  0
 16 18  1  0  0  0  0
 18 23  2  0  0  0  0
 18 19  1  0  0  0  0
 19 20  2  0  0  0  0
 20 21  1  0  0  0  0
 21 22  2  0  0  0  0
 22 23  1  0  0  0  0
  3 24  1  6  0  0  0
  7 25  1  6  0  0  0
M  END
>  <Name>
Granisetron

>  <CAS #>
109889-09-0

>  <human Clearance (mL/min/kg)>
9.1

>  <Primary mechanism (metabolic, biliary or renal)>
metabolic

>  <seqId>
432.0

>  <Code (mechanism and clearance degree index)>
M1

>  < Five M1 and R1 test groups>
M1_4

>  <formamide>
0

>  <prodrug phosphates>
0

>  <VolSurf_V>
730.75

>  <VolSurf_S>
496.729

>  <VolSurf_R>
1.47112

>  <VolSurf_G>
1.42457

>  <VolSurf_IW1>
0.0200628

>  <VolSurf_IW2>
0.093265

>  <VolSurf_IW3>
0.194147

>  <VolSurf_IW4>
0.176382

>  <VolSurf_ID1>
0.0382782

>  <VolSurf_ID2>
0.130135

>  <VolSurf_ID3>
0.203431

>  <VolSurf_ID4>
0.240738

>  <VolSurf_HL1>
1.0254

>  <VolSurf_HL2>
0.833948

>  <VolSurf_A>
3.20787

>  <VolSurf_CP>
1.17913

>  <VolSurf_POL>
37.089

>  <VolSurf_MW>
313.417

>  <VolSurf_FLEX>
0.617558

>  <VolSurf_FLEX_RB>
0.15439

>  <VolSurf_NCC>
1.0

>  <VolSurf_LOGP n-Oct>
2.803

>  <VolSurf_LOGP c-Hex>
0.582

>  <VolSurf_PSA>
56.15

>  <VolSurf_HSA>
440.579

>  <VolSurf_PSAR>
0.113039

>  <VolSurf_PHSAR>
0.127446

>  <VolSurf_LgD5>
0.837878

>  <VolSurf_LgD6>
0.854422

>  <VolSurf_LgD7>
0.991787

>  <VolSurf_LgD7.5>
1.2072

>  <VolSurf_LgD8>
1.54692

>  <VolSurf_LgD9>
2.31936

>  <VolSurf_LgD10>
2.72062

>  <VolSurf_AUS7.4>
0.272726

>  <VolSurf_%FU4>
4.72846E-4

>  <VolSurf_%FU5>
0.00472831

>  <VolSurf_%FU6>
0.047263

>  <VolSurf_%FU7>
0.470628

>  <VolSurf_%FU8>
4.51504

>  <VolSurf_%FU9>
32.1044

>  <VolSurf_%FU10>
82.5345

>  <ID>
217

>  <MOKAID>
218

>  <Clearance Route>
metabolic

>  <PC1>
1.63226

>  <PC2>
-0.306204

$$$$
Hydrocortisone
  -OEChem-08301611272D

 29 32  0     1  0  0  0  0  0999 V2000
    1.7357    2.0056    0.0000 C   0  0  0  0  0  0  0  0  0  0  0  0
    1.7358    1.0056    0.0000 C   0  0  2  0  0  0  0  0  0  0  0  0
    0.8679    1.5135    0.0000 C   0  0  0  0  0  0  0  0  0  0  0  0
    0.0000    1.0056    0.0000 C   0  0  0  0  0  0  0  0  0  0  0  0
   -0.0000    0.0000    0.0000 C   0  0  0  0  0  0  0  0  0  0  0  0
   -0.8653   -0.5013    0.0000 O   0  0  0  0  0  0  0  0  0  0  0  0
    0.8679   -0.4977    0.0000 C   0  0  0  0  0  0  0  0  0  0  0  0
    1.7371    0.0000    0.0000 C   0  0  0  0  0  0  0  0  0  0  0  0
    2.6037   -0.4989    0.0000 C   0  0  0  0  0  0  0  0  0  0  0  0
    3.4748    0.0023    0.0000 C   0  0  0  0  0  0  0  0  0  0  0  0
    3.4759    1.0071    0.0000 C   0  0  1  0  0  0  0  0  0  0  0  0
    4.3477    1.5084    0.0000 C   0  0  2  0  0  0  0  0  0  0  0  0
    6.0915    1.5061    0.0000 C   0  0  0  0  0  0  0  0  0  0  0  0
    6.0928    2.5162    0.0000 C   0  0  0  0  0  0  0  0  0  0  0  0
    5.2187    3.0279    0.0000 C   0  0  2  0  0  0  0  0  0  0  0  0
    4.5742    3.7925    0.0000 O   0  0  0  0  0  0  0  0  0  0  0  0
    5.8629    3.7927    0.0000 C   0  0  0  0  0  0  0  0  0  0  0  0
    6.8474    3.6172    0.0000 O   0  0  0  0  0  0  0  0  0  0  0  0
    5.5227    4.7331    0.0000 C   0  0  0  0  0  0  0  0  0  0  0  0
    6.1669    5.4979    0.0000 O   0  0  0  0  0  0  0  0  0  0  0  0
    4.3490    2.5184    0.0000 C   0  0  2  0  0  0  0  0  0  0  0  0
    5.2163    2.0206    0.0000 C   0  0  0  0  0  0  0  0  0  0  0  0
    3.4743    3.0237    0.0000 C   0  0  0  0  0  0  0  0  0  0  0  0
    2.5967    2.5196    0.0000 C   0  0  2  0  0  0  0  0  0  0  0  0
    1.7301    3.0186    0.0000 O   0  0  0  0  0  0  0  0  0  0  0  0
    2.6012    1.5123    0.0000 C   0  0  2  0  0  0  0  0  0  0  0  0
    4.3412    0.5059    0.0000 H   0  0  0  0  0  0  0  0  0  0  0  0
    4.6050    0.5421    0.0000 H   0  0  0  0  0  0  0  0  0  0  0  0
    1.7325    2.0077    0.0000 H   0  0  0  0  0  0  0  0  0  0  0  0
  2  1  1  1  0  0  0
  2  8  1  0  0  0  0
  2 26  1  0  0  0  0
  2  3  1  0  0  0  0
  3  4  1  0  0  0  0
  4  5  1  0  0  0  0
  5  6  2  0  0  0  0
  5  7  1  0  0  0  0
  7  8  2  0  0  0  0
  8  9  1  0  0  0  0
  9 10  1  0  0  0  0
 10 11  1  0  0  0  0
 11 26  1  0  0  0  0
 11 12  1  0  0  0  0
 12 21  1  0  0  0  0
 12 13  1  0  0  0  0
 13 14  1  0  0  0  0
 14 15  1  0  0  0  0
 15 16  1  6  0  0  0
 15 17  1  0  0  0  0
 17 18  2  0  0  0  0
 17 19  1  0  0  0  0
 19 20  1  0  0  0  0
 15 21  1  0  0  0  0
 21 22  1  1  0  0  0
 21 23  1  0  0  0  0
 23 24  1  0  0  0  0
 24 25  1  1  0  0  0
 24 26  1  0  0  0  0
 11 27  1  1  0  0  0
 12 28  1  6  0  0  0
 26 29  1  6  0  0  0
M  END
>  <Name>
Hydrocortisone

>  <CAS #>
50-23-7

>  <human Clearance (mL/min/kg)>
5.7

>  <Primary mechanism (metabolic, biliary or renal)>
metabolic

>  <seqId>
441.0

>  <Code (mechanism and clearance degree index)>
M1

>  < Five M1 and R1 test groups>
M1_3

>  <formamide>
0

>  <prodrug phosphates>
0

>  <VolSurf_V>
733.5

>  <VolSurf_S>
475.037

>  <VolSurf_R>
1.54409

>  <VolSurf_G>
1.32729

>  <VolSurf_IW1>
0.0767166

>  <VolSurf_IW2>
0.16406

>  <VolSurf_IW3>
0.280379

>  <VolSurf_IW4>
0.376707

>  <VolSurf_ID1>
0.0720629

>  <VolSurf_ID2>
0.166893

>  <VolSurf_ID3>
0.254723

>  <VolSurf_ID4>
0.362511

>  <VolSurf_HL1>
8.08

>  <VolSurf_HL2>
9.75676

>  <VolSurf_A>
5.78206

>  <VolSurf_CP>
0.13305

>  <VolSurf_POL>
37.522

>  <VolSurf_MW>
362.46

>  <VolSurf_FLEX>
0.283579

>  <VolSurf_FLEX_RB>
0.0405113

>  <VolSurf_NCC>
0.0

>  <VolSurf_LOGP n-Oct>
1.542

>  <VolSurf_LOGP c-Hex>
-1.306

>  <VolSurf_PSA>
94.83

>  <VolSurf_HSA>
380.207

>  <VolSurf_PSAR>
0.199627

>  <VolSurf_PHSAR>
0.249417

>  <VolSurf_LgD5>
1.542

>  <VolSurf_LgD6>
1.542

>  <VolSurf_LgD7>
1.542

>  <VolSurf_LgD7.5>
1.54199

>  <VolSurf_LgD8>
1.54198

>  <VolSurf_LgD9>
1.54177

>  <VolSurf_LgD10>
1.53968

>  <VolSurf_AUS7.4>
2.0

>  <VolSurf_%FU4>
100.0

>  <VolSurf_%FU5>
100.0

>  <VolSurf_%FU6>
99.9999

>  <VolSurf_%FU7>
99.9995

>  <VolSurf_%FU8>
99.9946

>  <VolSurf_%FU9>
99.9464

>  <VolSurf_%FU10>
99.4664

>  <ID>
218

>  <MOKAID>
219

>  <Clearance Route>
metabolic

>  <PC1>
2.65485

>  <PC2>
0.942177

$$$$
Hydromorphone
  -OEChem-08301611272D

 24 28  0     1  0  0  0  0  0999 V2000
    3.5607   -3.5661    0.0000 C   0  0  0  0  0  0  0  0  0  0  0  0
    2.5608   -3.5551    0.0000 N   0  0  3  0  0  0  0  0  0  0  0  0
    1.6860   -4.0481    0.0000 C   0  0  0  0  0  0  0  0  0  0  0  0
   -0.0518   -4.0277    0.0000 C   0  0  0  0  0  0  0  0  0  0  0  0
   -0.0423   -3.0217    0.0000 C   0  0  1  0  0  0  0  0  0  0  0  0
    0.8239   -3.5335    0.0000 C   0  0  1  0  0  0  0  0  0  0  0  0
    0.8260   -4.5359    0.0000 C   0  0  0  0  0  0  0  0  0  0  0  0
   -0.0423   -5.0338    0.0000 C   0  0  0  0  0  0  0  0  0  0  0  0
   -0.9106   -4.5359    0.0000 C   0  0  0  0  0  0  0  0  0  0  0  0
   -1.7759   -5.0372    0.0000 O   0  0  0  0  0  0  0  0  0  0  0  0
   -0.9106   -3.5298    0.0000 C   0  0  2  0  0  0  0  0  0  0  0  0
   -1.7134   -2.5237    0.0000 O   0  0  0  0  0  0  0  0  0  0  0  0
   -0.9039   -1.5034    0.0000 C   0  0  0  0  0  0  0  0  0  0  0  0
   -0.8842   -0.4903    0.0000 C   0  0  0  0  0  0  0  0  0  0  0  0
   -1.7409    0.0255    0.0000 O   0  0  0  0  0  0  0  0  0  0  0  0
    0.0000   -0.0000    0.0000 C   0  0  0  0  0  0  0  0  0  0  0  0
    0.8648   -0.5226    0.0000 C   0  0  0  0  0  0  0  0  0  0  0  0
    0.8474   -1.5281    0.0000 C   0  0  0  0  0  0  0  0  0  0  0  0
    1.7083   -2.0368    0.0000 C   0  0  0  0  0  0  0  0  0  0  0  0
    1.6954   -3.0420    0.0000 C   0  0  1  0  0  0  0  0  0  0  0  0
   -0.0369   -2.0184    0.0000 C   0  0  0  0  0  0  0  0  0  0  0  0
    1.6879   -4.0370    0.0000 H   0  0  0  0  0  0  0  0  0  0  0  0
   -1.8544   -3.8602    0.0000 H   0  0  0  0  0  0  0  0  0  0  0  0
    0.8352   -2.5321    0.0000 H   0  0  0  0  0  0  0  0  0  0  0  0
  1  2  1  0  0  0  0
  2 20  1  0  0  0  0
  2  3  1  0  0  0  0
  3  4  1  0  0  0  0
  5  4  1  1  0  0  0
  5 11  1  0  0  0  0
  5 21  1  0  0  0  0
  5  6  1  0  0  0  0
  6 20  1  0  0  0  0
  6  7  1  0  0  0  0
  7  8  1  0  0  0  0
  8  9  1  0  0  0  0
  9 10  2  0  0  0  0
  9 11  1  0  0  0  0
 11 12  1  0  0  0  0
 12 13  1  0  0  0  0
 13 21  2  0  0  0  0
 13 14  1  0  0  0  0
 14 15  1  0  0  0  0
 14 16  2  0  0  0  0
 16 17  1  0  0  0  0
 17 18  2  0  0  0  0
 18 19  1  0  0  0  0
 19 20  1  0  0  0  0
 18 21  1  0  0  0  0
  6 22  1  1  0  0  0
 11 23  1  1  0  0  0
 20 24  1  6  0  0  0
M  END
>  <Name>
Hydromorphone

>  <CAS #>
466-99-9

>  <human Clearance (mL/min/kg)>
28.0

>  <Primary mechanism (metabolic, biliary or renal)>
metabolic

>  <seqId>
443.0

>  <Code (mechanism and clearance degree index)>
M1

>  < Five M1 and R1 test groups>
M1_2

>  <formamide>
0

>  <prodrug phosphates>
0

>  <VolSurf_V>
609.375

>  <VolSurf_S>
406.593

>  <VolSurf_R>
1.49873

>  <VolSurf_G>
1.26511

>  <VolSurf_IW1>
0.134438

>  <VolSurf_IW2>
0.426349

>  <VolSurf_IW3>
0.90354

>  <VolSurf_IW4>
1.39615

>  <VolSurf_ID1>
0.0405204

>  <VolSurf_ID2>
0.0533447

>  <VolSurf_ID3>
0.0562971

>  <VolSurf_ID4>
0.115404

>  <VolSurf_HL1>
2.67431

>  <VolSurf_HL2>
2.94845

>  <VolSurf_A>
4.73545

>  <VolSurf_CP>
1.17407

>  <VolSurf_POL>
31.866

>  <VolSurf_MW>
286.345

>  <VolSurf_FLEX>
1.44754E-6

>  <VolSurf_FLEX_RB>
7.23771E-7

>  <VolSurf_NCC>
1.0

>  <VolSurf_LOGP n-Oct>
1.456

>  <VolSurf_LOGP c-Hex>
-0.213

>  <VolSurf_PSA>
60.14

>  <VolSurf_HSA>
346.453

>  <VolSurf_PSAR>
0.147912

>  <VolSurf_PHSAR>
0.173588

>  <VolSurf_LgD5>
-1.03473

>  <VolSurf_LgD6>
-0.68593

>  <VolSurf_LgD7>
0.112508

>  <VolSurf_LgD7.5>
0.555363

>  <VolSurf_LgD8>
0.937972

>  <VolSurf_LgD9>
1.15488

>  <VolSurf_LgD10>
0.597342

>  <VolSurf_AUS7.4>
1.03138

>  <VolSurf_%FU4>
0.00445796

>  <VolSurf_%FU5>
0.0445617

>  <VolSurf_%FU6>
0.443836

>  <VolSurf_%FU7>
4.26637

>  <VolSurf_%FU8>
30.0585

>  <VolSurf_%FU9>
48.4981

>  <VolSurf_%FU10>
10.6398

>  <ID>
219

>  <MOKAID>
220

>  <Clearance Route>
metabolic

>  <PC1>
1.08943

>  <PC2>
1.8981

$$$$
Hydroxychloroquine
  -OEChem-08301611272D

 23 24  0     1  0  0  0  0  0999 V2000
   -0.8936   -6.4859    0.0000 C   0  0  0  0  0  0  0  0  0  0  0  0
   -0.0248   -5.9907    0.0000 C   0  0  0  0  0  0  0  0  0  0  0  0
   -0.0192   -4.9907    0.0000 N   0  0  3  0  0  0  0  0  0  0  0  0
   -0.8824   -4.4859    0.0000 C   0  0  0  0  0  0  0  0  0  0  0  0
   -1.7512   -4.9811    0.0000 C   0  0  0  0  0  0  0  0  0  0  0  0
   -2.6145   -4.4763    0.0000 O   0  0  0  0  0  0  0  0  0  0  0  0
    0.8496   -4.4956    0.0000 C   0  0  0  0  0  0  0  0  0  0  0  0
    0.8551   -3.4956    0.0000 C   0  0  0  0  0  0  0  0  0  0  0  0
    1.7239   -3.0004    0.0000 C   0  0  0  0  0  0  0  0  0  0  0  0
    1.7295   -2.0004    0.0000 C   0  0  3  0  0  0  0  0  0  0  0  0
    0.8663   -1.4956    0.0000 C   0  0  0  0  0  0  0  0  0  0  0  0
    2.5983   -1.5053    0.0000 N   0  0  0  0  0  0  0  0  0  0  0  0
    2.6039   -0.5053    0.0000 C   0  0  0  0  0  0  0  0  0  0  0  0
    3.4805   -0.0073    0.0000 C   0  0  0  0  0  0  0  0  0  0  0  0
    3.4848    1.0014    0.0000 C   0  0  0  0  0  0  0  0  0  0  0  0
    2.6125    1.5125    0.0000 N   0  0  0  0  0  0  0  0  0  0  0  0
    1.7414    1.0089    0.0000 C   0  0  0  0  0  0  0  0  0  0  0  0
    0.8707    1.5185    0.0000 C   0  0  0  0  0  0  0  0  0  0  0  0
    0.0000    1.0089    0.0000 C   0  0  0  0  0  0  0  0  0  0  0  0
   -0.8675    1.5063    0.0000 Cl  0  0  0  0  0  0  0  0  0  0  0  0
    0.0000    0.0000    0.0000 C   0  0  0  0  0  0  0  0  0  0  0  0
    0.8707   -0.4993    0.0000 C   0  0  0  0  0  0  0  0  0  0  0  0
    1.7371    0.0000    0.0000 C   0  0  0  0  0  0  0  0  0  0  0  0
  1  2  1  0  0  0  0
  2  3  1  0  0  0  0
  3  4  1  0  0  0  0
  4  5  1  0  0  0  0
  5  6  1  0  0  0  0
  3  7  1  0  0  0  0
  7  8  1  0  0  0  0
  8  9  1  0  0  0  0
  9 10  1  0  0  0  0
 10 11  1  0  0  0  0
 10 12  1  0  0  0  0
 12 13  1  0  0  0  0
 13 23  2  0  0  0  0
 13 14  1  0  0  0  0
 14 15  2  0  0  0  0
 15 16  1  0  0  0  0
 16 17  2  0  0  0  0
 17 23  1  0  0  0  0
 17 18  1  0  0  0  0
 18 19  2  0  0  0  0
 19 20  1  0  0  0  0
 19 21  1  0  0  0  0
 21 22  2  0  0  0  0
 22 23  1  0  0  0  0
M  END
>  <Name>
Hydroxychloroquine

>  <CAS #>
118-42-3

>  <human Clearance (mL/min/kg)>
11.0

>  <Primary mechanism (metabolic, biliary or renal)>
metabolic

>  <seqId>
444.0

>  <Code (mechanism and clearance degree index)>
M1

>  < Five M1 and R1 test groups>
M1_1

>  <formamide>
0

>  <prodrug phosphates>
0

>  <VolSurf_V>
811.25

>  <VolSurf_S>
563.262

>  <VolSurf_R>
1.44027

>  <VolSurf_G>
1.54948

>  <VolSurf_IW1>
0.0549537

>  <VolSurf_IW2>
0.223433

>  <VolSurf_IW3>
0.713553

>  <VolSurf_IW4>
1.10057

>  <VolSurf_ID1>
0.0458154

>  <VolSurf_ID2>
0.13769

>  <VolSurf_ID3>
0.205475

>  <VolSurf_ID4>
0.258378

>  <VolSurf_HL1>
0.860781

>  <VolSurf_HL2>
0.618132

>  <VolSurf_A>
7.4114

>  <VolSurf_CP>
1.14067

>  <VolSurf_POL>
39.195

>  <VolSurf_MW>
337.887

>  <VolSurf_FLEX>
2.78911

>  <VolSurf_FLEX_RB>
0.232426

>  <VolSurf_NCC>
2.0

>  <VolSurf_LOGP n-Oct>
4.138

>  <VolSurf_LOGP c-Hex>
-0.69

>  <VolSurf_PSA>
58.3

>  <VolSurf_HSA>
504.962

>  <VolSurf_PSAR>
0.103504

>  <VolSurf_PHSAR>
0.115454

>  <VolSurf_LgD5>
-1.10627

>  <VolSurf_LgD6>
-0.814381

>  <VolSurf_LgD7>
0.810679

>  <VolSurf_LgD7.5>
1.68482

>  <VolSurf_LgD8>
2.43196

>  <VolSurf_LgD9>
3.5019

>  <VolSurf_LgD10>
4.01873

>  <VolSurf_AUS7.4>
0.0

>  <VolSurf_%FU4>
5.42375E-8

>  <VolSurf_%FU5>
5.41544E-6

>  <VolSurf_%FU6>
5.33373E-4

>  <VolSurf_%FU7>
0.0463257

>  <VolSurf_%FU8>
1.9664

>  <VolSurf_%FU9>
23.1141

>  <VolSurf_%FU10>
75.9843

>  <ID>
220

>  <MOKAID>
221

>  <Clearance Route>
possible billary

>  <PC1>
1.16983

>  <PC2>
-0.876639

$$$$
Ibutilide
  -OEChem-08301611272D

 26 26  0     1  0  0  0  0  0999 V2000
    0.8941   10.5027    0.0000 C   0  0  0  0  0  0  0  0  0  0  0  0
    0.8911    9.5027    0.0000 C   0  0  0  0  0  0  0  0  0  0  0  0
    1.7556    9.0001    0.0000 C   0  0  0  0  0  0  0  0  0  0  0  0
    1.7527    8.0001    0.0000 C   0  0  0  0  0  0  0  0  0  0  0  0
    2.6172    7.4976    0.0000 C   0  0  0  0  0  0  0  0  0  0  0  0
    2.6143    6.4976    0.0000 C   0  0  0  0  0  0  0  0  0  0  0  0
    3.4788    5.9950    0.0000 C   0  0  0  0  0  0  0  0  0  0  0  0
    3.4759    4.9950    0.0000 N   0  0  3  0  0  0  0  0  0  0  0  0
    4.3404    4.4925    0.0000 C   0  0  0  0  0  0  0  0  0  0  0  0
    5.2079    4.9899    0.0000 C   0  0  0  0  0  0  0  0  0  0  0  0
    2.6084    4.4976    0.0000 C   0  0  0  0  0  0  0  0  0  0  0  0
    2.6054    3.4976    0.0000 C   0  0  0  0  0  0  0  0  0  0  0  0
    1.7379    3.0001    0.0000 C   0  0  0  0  0  0  0  0  0  0  0  0
    1.7350    2.0001    0.0000 C   0  0  3  0  0  0  0  0  0  0  0  0
    2.5995    1.4976    0.0000 O   0  0  0  0  0  0  0  0  0  0  0  0
    0.8675    1.5027    0.0000 C   0  0  0  0  0  0  0  0  0  0  0  0
    0.8675    0.4975    0.0000 C   0  0  0  0  0  0  0  0  0  0  0  0
    0.0000    0.0000    0.0000 C   0  0  0  0  0  0  0  0  0  0  0  0
   -0.8675    0.4975    0.0000 C   0  0  0  0  0  0  0  0  0  0  0  0
   -1.7328   -0.0038    0.0000 N   0  0  0  0  0  0  0  0  0  0  0  0
   -1.7313   -1.0038    0.0000 S   0  0  0  0  0  0  0  0  0  0  0  0
   -0.7313   -1.0023    0.0000 O   0  0  0  0  0  0  0  0  0  0  0  0
   -2.7313   -1.0052    0.0000 O   0  0  0  0  0  0  0  0  0  0  0  0
   -1.7299   -2.0038    0.0000 C   0  0  0  0  0  0  0  0  0  0  0  0
   -0.8675    1.5027    0.0000 C   0  0  0  0  0  0  0  0  0  0  0  0
    0.0000    2.0104    0.0000 C   0  0  0  0  0  0  0  0  0  0  0  0
  1  2  1  0  0  0  0
  2  3  1  0  0  0  0
  3  4  1  0  0  0  0
  4  5  1  0  0  0  0
  5  6  1  0  0  0  0
  6  7  1  0  0  0  0
  7  8  1  0  0  0  0
  8  9  1  0  0  0  0
  9 10  1  0  0  0  0
  8 11  1  0  0  0  0
 11 12  1  0  0  0  0
 12 13  1  0  0  0  0
 13 14  1  0  0  0  0
 14 15  1  0  0  0  0
 14 16  1  0  0  0  0
 16 26  2  0  0  0  0
 16 17  1  0  0  0  0
 17 18  2  0  0  0  0
 18 19  1  0  0  0  0
 19 20  1  0  0  0  0
 20 21  1  0  0  0  0
 21 22  2  0  0  0  0
 21 23  2  0  0  0  0
 21 24  1  0  0  0  0
 19 25  2  0  0  0  0
 25 26  1  0  0  0  0
M  END
>  <Name>
Ibutilide

>  <CAS #>
122647-31-8

>  <human Clearance (mL/min/kg)>
26.0

>  <Primary mechanism (metabolic, biliary or renal)>
metabolic

>  <seqId>
455.0

>  <Code (mechanism and clearance degree index)>
M1

>  < Five M1 and R1 test groups>
M1_3

>  <formamide>
0

>  <prodrug phosphates>
0

>  <VolSurf_V>
975.0

>  <VolSurf_S>
685.084

>  <VolSurf_R>
1.42318

>  <VolSurf_G>
1.72936

>  <VolSurf_IW1>
0.0772528

>  <VolSurf_IW2>
0.279855

>  <VolSurf_IW3>
0.414316

>  <VolSurf_IW4>
0.509636

>  <VolSurf_ID1>
0.0424349

>  <VolSurf_ID2>
0.0631712

>  <VolSurf_ID3>
0.136603

>  <VolSurf_ID4>
0.353763

>  <VolSurf_HL1>
1.79512

>  <VolSurf_HL2>
1.3388

>  <VolSurf_A>
5.05791

>  <VolSurf_CP>
0.944816

>  <VolSurf_POL>
45.786

>  <VolSurf_MW>
385.584

>  <VolSurf_FLEX>
3.60814

>  <VolSurf_FLEX_RB>
0.200452

>  <VolSurf_NCC>
1.0

>  <VolSurf_LOGP n-Oct>
4.399

>  <VolSurf_LOGP c-Hex>
0.503

>  <VolSurf_PSA>
85.8325

>  <VolSurf_HSA>
599.252

>  <VolSurf_PSAR>
0.125287

>  <VolSurf_PHSAR>
0.143233

>  <VolSurf_LgD5>
0.176206

>  <VolSurf_LgD6>
1.04205

>  <VolSurf_LgD7>
2.02441

>  <VolSurf_LgD7.5>
2.51923

>  <VolSurf_LgD8>
3.00648

>  <VolSurf_LgD9>
3.85874

>  <VolSurf_LgD10>
4.04809

>  <VolSurf_AUS7.4>
0.242829

>  <VolSurf_%FU4>
4.22115E-4

>  <VolSurf_%FU5>
0.00422099

>  <VolSurf_%FU6>
0.0421939

>  <VolSurf_%FU7>
0.420341

>  <VolSurf_%FU8>
4.04855

>  <VolSurf_%FU9>
28.8207

>  <VolSurf_%FU10>
44.5609

>  <ID>
221

>  <MOKAID>
222

>  <Clearance Route>
possible billary

>  <PC1>
1.6830900000000002

>  <PC2>
-1.62689

$$$$
IDX899
  -OEChem-08301611272D

 28 30  0     1  0  0  0  0  0999 V2000
    1.7360   -0.0012    0.0000 C   0  0  0  0  0  0  0  0  0  0  0  0
    1.7360    1.0058    0.0000 C   0  0  0  0  0  0  0  0  0  0  0  0
    0.8680    1.5138    0.0000 C   0  0  0  0  0  0  0  0  0  0  0  0
    0.0000    1.0058    0.0000 C   0  0  0  0  0  0  0  0  0  0  0  0
    0.0000    0.0000    0.0000 C   0  0  0  0  0  0  0  0  0  0  0  0
    0.8680   -0.4978    0.0000 C   0  0  0  0  0  0  0  0  0  0  0  0
   -0.8653   -0.5013    0.0000 Cl  0  0  0  0  0  0  0  0  0  0  0  0
    2.6938    1.3169    0.0000 N   0  0  0  0  0  0  0  0  0  0  0  0
    3.2858    0.5023    0.0000 C   0  0  0  0  0  0  0  0  0  0  0  0
    2.6938   -0.3125    0.0000 C   0  0  0  0  0  0  0  0  0  0  0  0
    3.0028   -1.2636    0.0000 P   0  0  3  0  0  0  0  0  0  0  0  0
    3.9538   -0.9546    0.0000 O   0  0  0  0  0  0  0  0  0  0  0  0
    3.5435   -2.9279    0.0000 C   0  0  0  0  0  0  0  0  0  0  0  0
    2.8686   -3.6729    0.0000 C   0  0  0  0  0  0  0  0  0  0  0  0
    3.1776   -4.6241    0.0000 C   0  0  0  0  0  0  0  0  0  0  0  0
    4.1545   -4.8377    0.0000 C   0  0  0  0  0  0  0  0  0  0  0  0
    4.8293   -4.0928    0.0000 C   0  0  0  0  0  0  0  0  0  0  0  0
    4.5273   -3.1341    0.0000 C   0  0  0  0  0  0  0  0  0  0  0  0
    5.8062   -4.3065    0.0000 C   0  0  0  0  0  0  0  0  0  0  0  0
    6.4798   -3.5673    0.0000 C   0  0  0  0  0  0  0  0  0  0  0  0
    7.4567   -3.7811    0.0000 C   0  0  0  0  0  0  0  0  0  0  0  0
    8.4336   -3.9948    0.0000 N   0  0  0  0  0  0  0  0  0  0  0  0
    2.5062   -5.3652    0.0000 C   0  0  0  0  0  0  0  0  0  0  0  0
    2.0517   -1.5725    0.0000 O   0  0  0  0  0  0  0  0  0  0  0  0
    1.8437   -2.5507    0.0000 C   0  0  0  0  0  0  0  0  0  0  0  0
    4.2858    0.5024    0.0000 C   0  0  0  0  0  0  0  0  0  0  0  0
    4.7859   -0.3636    0.0000 O   0  0  0  0  0  0  0  0  0  0  0  0
    4.7858    1.3684    0.0000 N   0  0  0  0  0  0  0  0  0  0  0  0
  1  6  2  0  0  0  0
  1 10  1  0  0  0  0
  1  2  1  0  0  0  0
  2  3  2  0  0  0  0
  3  4  1  0  0  0  0
  4  5  2  0  0  0  0
  5  6  1  0  0  0  0
  5  7  1  0  0  0  0
  2  8  1  0  0  0  0
  8  9  1  0  0  0  0
  9 10  2  0  0  0  0
 10 11  1  0  0  0  0
 11 12  2  0  0  0  0
 11 13  1  0  0  0  0
 13 18  2  0  0  0  0
 13 14  1  0  0  0  0
 14 15  2  0  0  0  0
 15 16  1  0  0  0  0
 16 17  2  0  0  0  0
 17 18  1  0  0  0  0
 17 19  1  0  0  0  0
 19 20  2  0  0  0  0
 20 21  1  0  0  0  0
 21 22  3  0  0  0  0
 15 23  1  0  0  0  0
 11 24  1  0  0  0  0
 24 25  1  0  0  0  0
  9 26  1  0  0  0  0
 26 27  2  0  0  0  0
 26 28  1  0  0  0  0
M  END
>  <Name>
IDX899

>  <CAS #>
1097733-15-7

>  <human Clearance (mL/min/kg)>
0.56

>  <Primary mechanism (metabolic, biliary or renal)>
metabolic

>  <seqId>
458.0

>  <Code (mechanism and clearance degree index)>
M1

>  < Five M1 and R1 test groups>
M1_2

>  <formamide>
0

>  <prodrug phosphates>
0

>  <VolSurf_V>
864.75

>  <VolSurf_S>
589.128

>  <VolSurf_R>
1.46785

>  <VolSurf_G>
1.55488

>  <VolSurf_IW1>
0.0812556

>  <VolSurf_IW2>
0.262322

>  <VolSurf_IW3>
0.611765

>  <VolSurf_IW4>
0.978829

>  <VolSurf_ID1>
0.0273422

>  <VolSurf_ID2>
0.0509186

>  <VolSurf_ID3>
0.0870791

>  <VolSurf_ID4>
0.112987

>  <VolSurf_HL1>
0.754995

>  <VolSurf_HL2>
0.550505

>  <VolSurf_A>
4.01411

>  <VolSurf_CP>
3.5891

>  <VolSurf_POL>
41.509

>  <VolSurf_MW>
413.794

>  <VolSurf_FLEX>
1.56825

>  <VolSurf_FLEX_RB>
0.17425

>  <VolSurf_NCC>
0.0

>  <VolSurf_LOGP n-Oct>
2.878

>  <VolSurf_LOGP c-Hex>
-0.532

>  <VolSurf_PSA>
105.21

>  <VolSurf_HSA>
483.918

>  <VolSurf_PSAR>
0.178586

>  <VolSurf_PHSAR>
0.217413

>  <VolSurf_LgD5>
2.878

>  <VolSurf_LgD6>
2.878

>  <VolSurf_LgD7>
2.87797

>  <VolSurf_LgD7.5>
2.8779

>  <VolSurf_LgD8>
2.87768

>  <VolSurf_LgD9>
2.8748

>  <VolSurf_LgD10>
2.84692

>  <VolSurf_AUS7.4>
2.0

>  <VolSurf_%FU4>
100.0

>  <VolSurf_%FU5>
99.9999

>  <VolSurf_%FU6>
99.9993

>  <VolSurf_%FU7>
99.9926

>  <VolSurf_%FU8>
99.926

>  <VolSurf_%FU9>
99.2648

>  <VolSurf_%FU10>
93.0917

>  <ID>
222

>  <MOKAID>
223

>  <Clearance Route>
metabolic

>  <PC1>
4.0580300000000005

>  <PC2>
-0.636651

$$$$
IDX989
  -OEChem-08301611272D

 29 31  0     1  0  0  0  0  0999 V2000
    1.7360   -0.0012    0.0000 C   0  0  0  0  0  0  0  0  0  0  0  0
    1.7360    1.0058    0.0000 C   0  0  0  0  0  0  0  0  0  0  0  0
    0.8680    1.5138    0.0000 C   0  0  0  0  0  0  0  0  0  0  0  0
    0.0000    1.0058    0.0000 C   0  0  0  0  0  0  0  0  0  0  0  0
    0.0000    0.0000    0.0000 C   0  0  0  0  0  0  0  0  0  0  0  0
    0.8680   -0.4978    0.0000 C   0  0  0  0  0  0  0  0  0  0  0  0
    0.8675   -1.4978    0.0000 F   0  0  0  0  0  0  0  0  0  0  0  0
   -0.8653   -0.5013    0.0000 Cl  0  0  0  0  0  0  0  0  0  0  0  0
    2.6938    1.3169    0.0000 N   0  0  0  0  0  0  0  0  0  0  0  0
    3.2858    0.5023    0.0000 C   0  0  0  0  0  0  0  0  0  0  0  0
    2.6938   -0.3125    0.0000 C   0  0  0  0  0  0  0  0  0  0  0  0
    3.0028   -1.2636    0.0000 P   0  0  3  0  0  0  0  0  0  0  0  0
    3.9538   -0.9546    0.0000 O   0  0  0  0  0  0  0  0  0  0  0  0
    3.5435   -2.9279    0.0000 C   0  0  0  0  0  0  0  0  0  0  0  0
    2.8686   -3.6729    0.0000 C   0  0  0  0  0  0  0  0  0  0  0  0
    3.1776   -4.6241    0.0000 C   0  0  0  0  0  0  0  0  0  0  0  0
    4.1545   -4.8377    0.0000 C   0  0  0  0  0  0  0  0  0  0  0  0
    4.8293   -4.0928    0.0000 C   0  0  0  0  0  0  0  0  0  0  0  0
    4.5273   -3.1341    0.0000 C   0  0  0  0  0  0  0  0  0  0  0  0
    5.8062   -4.3065    0.0000 C   0  0  0  0  0  0  0  0  0  0  0  0
    6.4798   -3.5673    0.0000 C   0  0  0  0  0  0  0  0  0  0  0  0
    7.4567   -3.7811    0.0000 C   0  0  0  0  0  0  0  0  0  0  0  0
    8.4336   -3.9948    0.0000 N   0  0  0  0  0  0  0  0  0  0  0  0
    2.5062   -5.3652    0.0000 C   0  0  0  0  0  0  0  0  0  0  0  0
    2.0517   -1.5725    0.0000 O   0  0  0  0  0  0  0  0  0  0  0  0
    1.8437   -2.5507    0.0000 C   0  0  0  0  0  0  0  0  0  0  0  0
    4.2858    0.5024    0.0000 C   0  0  0  0  0  0  0  0  0  0  0  0
    4.7859   -0.3636    0.0000 O   0  0  0  0  0  0  0  0  0  0  0  0
    4.7858    1.3684    0.0000 N   0  0  0  0  0  0  0  0  0  0  0  0
  1  6  2  0  0  0  0
  1 11  1  0  0  0  0
  1  2  1  0  0  0  0
  2  3  2  0  0  0  0
  3  4  1  0  0  0  0
  4  5  2  0  0  0  0
  5  6  1  0  0  0  0
  6  7  1  0  0  0  0
  5  8  1  0  0  0  0
  2  9  1  0  0  0  0
  9 10  1  0  0  0  0
 10 11  2  0  0  0  0
 11 12  1  0  0  0  0
 12 13  2  0  0  0  0
 12 14  1  0  0  0  0
 14 19  2  0  0  0  0
 14 15  1  0  0  0  0
 15 16  2  0  0  0  0
 16 17  1  0  0  0  0
 17 18  2  0  0  0  0
 18 19  1  0  0  0  0
 18 20  1  0  0  0  0
 20 21  2  0  0  0  0
 21 22  1  0  0  0  0
 22 23  3  0  0  0  0
 16 24  1  0  0  0  0
 12 25  1  0  0  0  0
 25 26  1  0  0  0  0
 10 27  1  0  0  0  0
 27 28  2  0  0  0  0
 27 29  1  0  0  0  0
M  END
>  <Name>
IDX989

>  <CAS #>
1254181-18-4

>  <human Clearance (mL/min/kg)>
0.97

>  <Primary mechanism (metabolic, biliary or renal)>
metabolic

>  <seqId>
459.0

>  <Code (mechanism and clearance degree index)>
M1

>  < Five M1 and R1 test groups>
M1_5

>  <formamide>
0

>  <prodrug phosphates>
0

>  <VolSurf_V>
861.875

>  <VolSurf_S>
575.945

>  <VolSurf_R>
1.49645

>  <VolSurf_G>
1.508

>  <VolSurf_IW1>
0.0663832

>  <VolSurf_IW2>
0.198276

>  <VolSurf_IW3>
0.442741

>  <VolSurf_IW4>
0.94459

>  <VolSurf_ID1>
0.0224537

>  <VolSurf_ID2>
0.0579741

>  <VolSurf_ID3>
0.0871332

>  <VolSurf_ID4>
0.0893478

>  <VolSurf_HL1>
0.938728

>  <VolSurf_HL2>
0.595782

>  <VolSurf_A>
2.81803

>  <VolSurf_CP>
2.75347

>  <VolSurf_POL>
41.418

>  <VolSurf_MW>
431.784

>  <VolSurf_FLEX>
1.59447

>  <VolSurf_FLEX_RB>
0.177163

>  <VolSurf_NCC>
0.0

>  <VolSurf_LOGP n-Oct>
2.942

>  <VolSurf_LOGP c-Hex>
-0.336

>  <VolSurf_PSA>
110.61

>  <VolSurf_HSA>
465.335

>  <VolSurf_PSAR>
0.19205

>  <VolSurf_PHSAR>
0.2377

>  <VolSurf_LgD5>
2.942

>  <VolSurf_LgD6>
2.94198

>  <VolSurf_LgD7>
2.94178

>  <VolSurf_LgD7.5>
2.94132

>  <VolSurf_LgD8>
2.93985

>  <VolSurf_LgD9>
2.92095

>  <VolSurf_LgD10>
2.76665

>  <VolSurf_AUS7.4>
2.0

>  <VolSurf_%FU4>
100.0

>  <VolSurf_%FU5>
99.9995

>  <VolSurf_%FU6>
99.995

>  <VolSurf_%FU7>
99.9504

>  <VolSurf_%FU8>
99.5058

>  <VolSurf_%FU9>
95.2678

>  <VolSurf_%FU10>
66.7701

>  <ID>
223

>  <MOKAID>
224

>  <Clearance Route>
metabolic

>  <PC1>
3.78595

>  <PC2>
-0.903114

$$$$
Imidafenacin
  -OEChem-08301611272D

 24 26  0     0  0  0  0  0  0999 V2000
    0.8011    4.5907    0.0000 N   0  0  0  0  0  0  0  0  0  0  0  0
   -0.0642    4.0894    0.0000 C   0  0  0  0  0  0  0  0  0  0  0  0
   -0.0626    3.0894    0.0000 C   0  0  0  0  0  0  0  0  0  0  0  0
   -0.0611    2.0894    0.0000 C   0  0  0  0  0  0  0  0  0  0  0  0
    0.8057    1.5907    0.0000 C   0  0  0  0  0  0  0  0  0  0  0  0
    0.8072    0.5907    0.0000 N   0  0  0  0  0  0  0  0  0  0  0  0
    0.0000    0.0000    0.0000 C   0  0  0  0  0  0  0  0  0  0  0  0
    0.3065   -0.9519    0.0000 C   0  0  0  0  0  0  0  0  0  0  0  0
    1.3079   -0.9519    0.0000 N   0  0  0  0  0  0  0  0  0  0  0  0
    1.6196    0.0000    0.0000 C   0  0  0  0  0  0  0  0  0  0  0  0
    2.5711    0.3078    0.0000 C   0  0  0  0  0  0  0  0  0  0  0  0
    1.6874    3.0920    0.0000 C   0  0  0  0  0  0  0  0  0  0  0  0
    2.1860    3.9648    0.0000 C   0  0  0  0  0  0  0  0  0  0  0  0
    3.1861    3.9664    0.0000 C   0  0  0  0  0  0  0  0  0  0  0  0
    3.6925    3.1041    0.0000 C   0  0  0  0  0  0  0  0  0  0  0  0
    3.1938    2.2313    0.0000 C   0  0  0  0  0  0  0  0  0  0  0  0
    2.1887    2.2209    0.0000 C   0  0  0  0  0  0  0  0  0  0  0  0
   -1.8126    3.0867    0.0000 C   0  0  0  0  0  0  0  0  0  0  0  0
   -2.3113    2.2139    0.0000 C   0  0  0  0  0  0  0  0  0  0  0  0
   -3.3114    2.2124    0.0000 C   0  0  0  0  0  0  0  0  0  0  0  0
   -3.8178    3.0747    0.0000 C   0  0  0  0  0  0  0  0  0  0  0  0
   -3.3191    3.9475    0.0000 C   0  0  0  0  0  0  0  0  0  0  0  0
   -2.3140    3.9579    0.0000 C   0  0  0  0  0  0  0  0  0  0  0  0
   -0.9310    4.5880    0.0000 O   0  0  0  0  0  0  0  0  0  0  0  0
  1  2  1  0  0  0  0
  2  3  1  0  0  0  0
  3  4  1  0  0  0  0
  4  5  1  0  0  0  0
  5  6  1  0  0  0  0
  6 10  1  0  0  0  0
  6  7  1  0  0  0  0
  7  8  2  0  0  0  0
  8  9  1  0  0  0  0
  9 10  2  0  0  0  0
 10 11  1  0  0  0  0
  3 12  1  0  0  0  0
 12 17  2  0  0  0  0
 12 13  1  0  0  0  0
 13 14  2  0  0  0  0
 14 15  1  0  0  0  0
 15 16  2  0  0  0  0
 16 17  1  0  0  0  0
  3 18  1  0  0  0  0
 18 23  2  0  0  0  0
 18 19  1  0  0  0  0
 19 20  2  0  0  0  0
 20 21  1  0  0  0  0
 21 22  2  0  0  0  0
 22 23  1  0  0  0  0
  2 24  2  0  0  0  0
M  END
>  <Name>
Imidafenacin

>  <CAS #>
170105-16-5

>  <human Clearance (mL/min/kg)>
6.1

>  <Primary mechanism (metabolic, biliary or renal)>
metabolic

>  <seqId>
464.0

>  <Code (mechanism and clearance degree index)>
M1

>  < Five M1 and R1 test groups>
M1_1

>  <formamide>
0

>  <prodrug phosphates>
0

>  <VolSurf_V>
740.75

>  <VolSurf_S>
489.727

>  <VolSurf_R>
1.51258

>  <VolSurf_G>
1.37573

>  <VolSurf_IW1>
0.0815125

>  <VolSurf_IW2>
0.297791

>  <VolSurf_IW3>
0.671481

>  <VolSurf_IW4>
0.969032

>  <VolSurf_ID1>
0.0328484

>  <VolSurf_ID2>
0.0644669

>  <VolSurf_ID3>
0.0975594

>  <VolSurf_ID4>
0.0642233

>  <VolSurf_HL1>
1.46667

>  <VolSurf_HL2>
1.40826

>  <VolSurf_A>
4.9891

>  <VolSurf_CP>
1.57034

>  <VolSurf_POL>
37.491

>  <VolSurf_MW>
319.4

>  <VolSurf_FLEX>
1.90078

>  <VolSurf_FLEX_RB>
0.237597

>  <VolSurf_NCC>
0.0

>  <VolSurf_LOGP n-Oct>
1.83

>  <VolSurf_LOGP c-Hex>
1.098

>  <VolSurf_PSA>
58.73

>  <VolSurf_HSA>
430.996

>  <VolSurf_PSAR>
0.119924

>  <VolSurf_PHSAR>
0.136266

>  <VolSurf_LgD5>
-0.22283

>  <VolSurf_LgD6>
0.730942

>  <VolSurf_LgD7>
1.49554

>  <VolSurf_LgD7.5>
1.69426

>  <VolSurf_LgD8>
1.78232

>  <VolSurf_LgD9>
1.82495

>  <VolSurf_LgD10>
1.82909

>  <VolSurf_AUS7.4>
1.83944

>  <VolSurf_%FU4>
0.0860727

>  <VolSurf_%FU5>
0.85411

>  <VolSurf_%FU6>
7.93142

>  <VolSurf_%FU7>
46.2789

>  <VolSurf_%FU8>
89.5985

>  <VolSurf_%FU9>
98.8434

>  <VolSurf_%FU10>
99.7914

>  <ID>
224

>  <MOKAID>
225

>  <Clearance Route>
metabolic

>  <PC1>
2.66204

>  <PC2>
0.05860599999999999

$$$$
Imipenem
  -OEChem-08301611272D

 21 22  0     1  0  0  0  0  0999 V2000
   -2.9875   -2.1729    0.0000 C   0  0  0  0  0  0  0  0  0  0  0  0
   -3.2463   -1.2070    0.0000 C   0  0  1  0  0  0  0  0  0  0  0  0
   -4.2122   -0.9482    0.0000 O   0  0  0  0  0  0  0  0  0  0  0  0
   -2.5392   -0.4999    0.0000 C   0  0  2  0  0  0  0  0  0  0  0  0
   -1.5392   -0.4999    0.0000 C   0  0  1  0  0  0  0  0  0  0  0  0
   -0.5881   -0.8091    0.0000 C   0  0  0  0  0  0  0  0  0  0  0  0
   -0.0000    0.0000    0.0000 C   0  0  0  0  0  0  0  0  0  0  0  0
   -0.5878    0.8091    0.0000 C   0  0  0  0  0  0  0  0  0  0  0  0
   -1.5391    0.5002    0.0000 N   0  0  0  0  0  0  0  0  0  0  0  0
   -2.5392    0.5002    0.0000 C   0  0  0  0  0  0  0  0  0  0  0  0
   -3.2463    1.2073    0.0000 O   0  0  0  0  0  0  0  0  0  0  0  0
   -0.2787    1.7601    0.0000 C   0  0  0  0  0  0  0  0  0  0  0  0
    0.6995    1.9679    0.0000 O   0  0  0  0  0  0  0  0  0  0  0  0
   -0.9477    2.5033    0.0000 O   0  0  0  0  0  0  0  0  0  0  0  0
    1.0000   -0.0001    0.0000 S   0  0  0  0  0  0  0  0  0  0  0  0
    1.5001    0.8658    0.0000 C   0  0  0  0  0  0  0  0  0  0  0  0
    2.5001    0.8657    0.0000 C   0  0  0  0  0  0  0  0  0  0  0  0
    3.0002    1.7317    0.0000 N   0  0  0  0  0  0  0  0  0  0  0  0
    4.0002    1.7316    0.0000 C   0  0  0  0  0  0  0  0  0  0  0  0
    4.5003    2.5975    0.0000 N   0  0  0  0  0  0  0  0  0  0  0  0
   -1.6957   -1.4876    0.0000 H   0  0  0  0  0  0  0  0  0  0  0  0
  1  2  1  0  0  0  0
  2  3  1  1  0  0  0
  2  4  1  0  0  0  0
  4 10  1  1  0  0  0
  4  5  1  0  0  0  0
  5  9  1  0  0  0  0
  5  6  1  0  0  0  0
  6  7  1  0  0  0  0
  7  8  2  0  0  0  0
  8  9  1  0  0  0  0
  9 10  1  0  0  0  0
 10 11  2  0  0  0  0
  8 12  1  0  0  0  0
 12 13  2  0  0  0  0
 12 14  1  0  0  0  0
  7 15  1  0  0  0  0
 15 16  1  0  0  0  0
 16 17  1  0  0  0  0
 17 18  1  0  0  0  0
 18 19  1  0  0  0  0
 19 20  2  3  0  0  0
  5 21  1  1  0  0  0
M  END
>  <Name>
Imipenem

>  <CAS #>
64221-86-9

>  <human Clearance (mL/min/kg)>
3.0

>  <Primary mechanism (metabolic, biliary or renal)>
renal

>  <seqId>
465.0

>  <Code (mechanism and clearance degree index)>
R1

>  < Five M1 and R1 test groups>
R1_4

>  <formamide>
0

>  <prodrug phosphates>
0

>  <VolSurf_V>
623.5

>  <VolSurf_S>
445.987

>  <VolSurf_R>
1.39802

>  <VolSurf_G>
1.42043

>  <VolSurf_IW1>
0.137111

>  <VolSurf_IW2>
0.288726

>  <VolSurf_IW3>
0.698055

>  <VolSurf_IW4>
1.03687

>  <VolSurf_ID1>
0.058066

>  <VolSurf_ID2>
0.106849

>  <VolSurf_ID3>
0.128848

>  <VolSurf_ID4>
0.255331

>  <VolSurf_HL1>
11.8403

>  <VolSurf_HL2>
13.0317

>  <VolSurf_A>
5.23125

>  <VolSurf_CP>
0.16561

>  <VolSurf_POL>
27.285

>  <VolSurf_MW>
299.346

>  <VolSurf_FLEX>
1.57615

>  <VolSurf_FLEX_RB>
0.175128

>  <VolSurf_NCC>
2.0

>  <VolSurf_LOGP n-Oct>
-0.808

>  <VolSurf_LOGP c-Hex>
-4.302

>  <VolSurf_PSA>
136.25

>  <VolSurf_HSA>
309.737

>  <VolSurf_PSAR>
0.305502

>  <VolSurf_PHSAR>
0.43989

>  <VolSurf_LgD5>
-3.11231

>  <VolSurf_LgD6>
-3.10846

>  <VolSurf_LgD7>
-3.10829

>  <VolSurf_LgD7.5>
-3.1088

>  <VolSurf_LgD8>
-3.11049

>  <VolSurf_LgD9>
-3.13214

>  <VolSurf_LgD10>
-3.29906

>  <VolSurf_AUS7.4>
0.0

>  <VolSurf_%FU4>
0.0

>  <VolSurf_%FU5>
0.0

>  <VolSurf_%FU6>
0.0

>  <VolSurf_%FU7>
0.0

>  <VolSurf_%FU8>
0.0

>  <VolSurf_%FU9>
0.0

>  <VolSurf_%FU10>
0.0

>  <ID>
225

>  <MOKAID>
226

>  <Clearance Route>
renal

>  <PC1>
-2.9462200000000003

>  <PC2>
2.21671

$$$$
Imipramine
  -OEChem-08301611272D

 21 23  0     0  0  0  0  0  0999 V2000
    1.1301   -5.0230    0.0000 C   0  0  0  0  0  0  0  0  0  0  0  0
    1.1257   -4.0230    0.0000 N   0  0  0  0  0  0  0  0  0  0  0  0
    0.2575   -3.5268    0.0000 C   0  0  0  0  0  0  0  0  0  0  0  0
    1.9896   -3.5192    0.0000 C   0  0  0  0  0  0  0  0  0  0  0  0
    1.9852   -2.5192    0.0000 C   0  0  0  0  0  0  0  0  0  0  0  0
    2.8490   -2.0154    0.0000 C   0  0  0  0  0  0  0  0  0  0  0  0
    2.8446   -1.0154    0.0000 N   0  0  0  0  0  0  0  0  0  0  0  0
    1.9312   -0.5840    0.0000 C   0  0  0  0  0  0  0  0  0  0  0  0
    1.2003   -1.2778    0.0000 C   0  0  0  0  0  0  0  0  0  0  0  0
    0.2313   -0.9837    0.0000 C   0  0  0  0  0  0  0  0  0  0  0  0
    0.0000    0.0000    0.0000 C   0  0  0  0  0  0  0  0  0  0  0  0
    0.7377    0.6898    0.0000 C   0  0  0  0  0  0  0  0  0  0  0  0
    1.6999    0.3997    0.0000 C   0  0  0  0  0  0  0  0  0  0  0  0
    2.3292    1.1930    0.0000 C   0  0  0  0  0  0  0  0  0  0  0  0
    3.3333    1.1944    0.0000 C   0  0  0  0  0  0  0  0  0  0  0  0
    3.9620    0.4062    0.0000 C   0  0  0  0  0  0  0  0  0  0  0  0
    4.9146    0.7195    0.0000 C   0  0  0  0  0  0  0  0  0  0  0  0
    5.6612    0.0428    0.0000 C   0  0  0  0  0  0  0  0  0  0  0  0
    5.4510   -0.9405    0.0000 C   0  0  0  0  0  0  0  0  0  0  0  0
    4.4941   -1.2472    0.0000 C   0  0  0  0  0  0  0  0  0  0  0  0
    3.7517   -0.5772    0.0000 C   0  0  0  0  0  0  0  0  0  0  0  0
  1  2  1  0  0  0  0
  2  3  1  0  0  0  0
  2  4  1  0  0  0  0
  4  5  1  0  0  0  0
  5  6  1  0  0  0  0
  6  7  1  0  0  0  0
  7 21  1  0  0  0  0
  7  8  1  0  0  0  0
  8 13  2  0  0  0  0
  8  9  1  0  0  0  0
  9 10  2  0  0  0  0
 10 11  1  0  0  0  0
 11 12  2  0  0  0  0
 12 13  1  0  0  0  0
 13 14  1  0  0  0  0
 14 15  1  0  0  0  0
 15 16  1  0  0  0  0
 16 21  2  0  0  0  0
 16 17  1  0  0  0  0
 17 18  2  0  0  0  0
 18 19  1  0  0  0  0
 19 20  2  0  0  0  0
 20 21  1  0  0  0  0
M  END
>  <Name>
Imipramine

>  <CAS #>
50-49-7

>  <human Clearance (mL/min/kg)>
13.0

>  <Primary mechanism (metabolic, biliary or renal)>
metabolic

>  <seqId>
466.0

>  <Code (mechanism and clearance degree index)>
M1

>  < Five M1 and R1 test groups>
M1_5

>  <formamide>
0

>  <prodrug phosphates>
0

>  <VolSurf_V>
730.125

>  <VolSurf_S>
480.0

>  <VolSurf_R>
1.5211

>  <VolSurf_G>
1.35437

>  <VolSurf_IW1>
0.0118074

>  <VolSurf_IW2>
0.207139

>  <VolSurf_IW3>
0.849469

>  <VolSurf_IW4>
1.08118

>  <VolSurf_ID1>
0.0235632

>  <VolSurf_ID2>
0.0681833

>  <VolSurf_ID3>
0.111537

>  <VolSurf_ID4>
0.133281

>  <VolSurf_HL1>
0.0794702

>  <VolSurf_HL2>
0.0515152

>  <VolSurf_A>
6.2817

>  <VolSurf_CP>
12.6382

>  <VolSurf_POL>
36.916

>  <VolSurf_MW>
281.415

>  <VolSurf_FLEX>
1.04808

>  <VolSurf_FLEX_RB>
0.17468

>  <VolSurf_NCC>
1.0

>  <VolSurf_LOGP n-Oct>
4.309

>  <VolSurf_LOGP c-Hex>
3.426

>  <VolSurf_PSA>
14.42

>  <VolSurf_HSA>
465.58

>  <VolSurf_PSAR>
0.0300417

>  <VolSurf_PHSAR>
0.0309722

>  <VolSurf_LgD5>
0.370578

>  <VolSurf_LgD6>
1.29083

>  <VolSurf_LgD7>
2.27531

>  <VolSurf_LgD7.5>
2.76578

>  <VolSurf_LgD8>
3.23942

>  <VolSurf_LgD9>
3.99217

>  <VolSurf_LgD10>
4.26469

>  <VolSurf_AUS7.4>
0.474319

>  <VolSurf_%FU4>
1.60806E-4

>  <VolSurf_%FU5>
0.00629428

>  <VolSurf_%FU6>
0.0887593

>  <VolSurf_%FU7>
0.917986

>  <VolSurf_%FU8>
8.51273

>  <VolSurf_%FU9>
48.2102

>  <VolSurf_%FU10>
90.3

>  <ID>
226

>  <MOKAID>
227

>  <Clearance Route>
metabolic

>  <PC1>
3.6367

>  <PC2>
0.108181

$$$$
Indinavir
  -OEChem-08301611272D

 45 49  0     1  0  0  0  0  0999 V2000
    2.6053    3.4976    0.0000 C   0  0  0  0  0  0  0  0  0  0  0  0
    1.7378    3.0001    0.0000 C   0  0  0  0  0  0  0  0  0  0  0  0
    2.2353    2.1326    0.0000 C   0  0  0  0  0  0  0  0  0  0  0  0
    1.2403    3.8676    0.0000 C   0  0  0  0  0  0  0  0  0  0  0  0
    0.8704    2.5026    0.0000 N   0  0  0  0  0  0  0  0  0  0  0  0
    0.8675    1.5026    0.0000 C   0  0  0  0  0  0  0  0  0  0  0  0
    1.7320    1.0001    0.0000 O   0  0  0  0  0  0  0  0  0  0  0  0
    0.0000    1.0051    0.0000 C   0  0  2  0  0  0  0  0  0  0  0  0
    0.0000    0.0000    0.0000 C   0  0  0  0  0  0  0  0  0  0  0  0
   -0.8674   -0.4976    0.0000 N   0  0  3  0  0  0  0  0  0  0  0  0
   -0.8674   -1.4976    0.0000 C   0  0  0  0  0  0  0  0  0  0  0  0
   -0.0014   -1.9976    0.0000 C   0  0  0  0  0  0  0  0  0  0  0  0
    0.8654   -1.4988    0.0000 C   0  0  0  0  0  0  0  0  0  0  0  0
    1.7336   -1.9951    0.0000 C   0  0  0  0  0  0  0  0  0  0  0  0
    1.7351   -3.0003    0.0000 C   0  0  0  0  0  0  0  0  0  0  0  0
    0.8683   -3.5092    0.0000 N   0  0  0  0  0  0  0  0  0  0  0  0
    0.0001   -3.0028    0.0000 C   0  0  0  0  0  0  0  0  0  0  0  0
   -1.7348   -0.0000    0.0000 C   0  0  0  0  0  0  0  0  0  0  0  0
   -1.7348    1.0051    0.0000 C   0  0  0  0  0  0  0  0  0  0  0  0
   -0.8674    1.5126    0.0000 N   0  0  3  0  0  0  0  0  0  0  0  0
   -0.8674    2.5126    0.0000 C   0  0  0  0  0  0  0  0  0  0  0  0
   -1.7334    3.0126    0.0000 C   0  0  1  0  0  0  0  0  0  0  0  0
   -2.5995    2.5126    0.0000 O   0  0  0  0  0  0  0  0  0  0  0  0
   -1.7334    4.0126    0.0000 C   0  0  0  0  0  0  0  0  0  0  0  0
   -2.5995    4.5126    0.0000 C   0  0  1  0  0  0  0  0  0  0  0  0
   -2.5995    5.5126    0.0000 C   0  0  0  0  0  0  0  0  0  0  0  0
   -1.7334    6.0126    0.0000 C   0  0  0  0  0  0  0  0  0  0  0  0
   -0.8644    5.5074    0.0000 C   0  0  0  0  0  0  0  0  0  0  0  0
    0.0017    6.0074    0.0000 C   0  0  0  0  0  0  0  0  0  0  0  0
    0.0075    7.0074    0.0000 C   0  0  0  0  0  0  0  0  0  0  0  0
   -0.8615    7.5126    0.0000 C   0  0  0  0  0  0  0  0  0  0  0  0
   -1.7364    7.0177    0.0000 C   0  0  0  0  0  0  0  0  0  0  0  0
   -3.4655    4.0126    0.0000 C   0  0  0  0  0  0  0  0  0  0  0  0
   -3.4655    3.0126    0.0000 O   0  0  0  0  0  0  0  0  0  0  0  0
   -4.3315    4.5126    0.0000 N   0  0  0  0  0  0  0  0  0  0  0  0
   -5.1975    4.0126    0.0000 C   0  0  2  0  0  0  0  0  0  0  0  0
   -6.1174    4.4223    0.0000 C   0  0  2  0  0  0  0  0  0  0  0  0
   -6.3252    5.4005    0.0000 O   0  0  0  0  0  0  0  0  0  0  0  0
   -6.7913    3.6739    0.0000 C   0  0  0  0  0  0  0  0  0  0  0  0
   -6.2877    2.8017    0.0000 C   0  0  0  0  0  0  0  0  0  0  0  0
   -6.5930    1.8494    0.0000 C   0  0  0  0  0  0  0  0  0  0  0  0
   -5.9256    1.1039    0.0000 C   0  0  0  0  0  0  0  0  0  0  0  0
   -4.9418    1.3130    0.0000 C   0  0  0  0  0  0  0  0  0  0  0  0
   -4.6254    2.2676    0.0000 C   0  0  0  0  0  0  0  0  0  0  0  0
   -5.3026    3.0111    0.0000 C   0  0  0  0  0  0  0  0  0  0  0  0
  1  2  1  0  0  0  0
  2  3  1  0  0  0  0
  2  4  1  0  0  0  0
  2  5  1  0  0  0  0
  5  6  1  0  0  0  0
  6  7  2  0  0  0  0
  8  6  1  6  0  0  0
  8 20  1  0  0  0  0
  8  9  1  0  0  0  0
  9 10  1  0  0  0  0
 10 11  1  0  0  0  0
 11 12  1  0  0  0  0
 12 17  2  0  0  0  0
 12 13  1  0  0  0  0
 13 14  2  0  0  0  0
 14 15  1  0  0  0  0
 15 16  2  0  0  0  0
 16 17  1  0  0  0  0
 10 18  1  0  0  0  0
 18 19  1  0  0  0  0
 19 20  1  0  0  0  0
 20 21  1  0  0  0  0
 21 22  1  0  0  0  0
 22 23  1  1  0  0  0
 22 24  1  0  0  0  0
 25 24  1  6  0  0  0
 25 26  1  0  0  0  0
 26 27  1  0  0  0  0
 27 32  2  0  0  0  0
 27 28  1  0  0  0  0
 28 29  2  0  0  0  0
 29 30  1  0  0  0  0
 30 31  2  0  0  0  0
 31 32  1  0  0  0  0
 25 33  1  0  0  0  0
 33 34  2  0  0  0  0
 33 35  1  0  0  0  0
 36 35  1  1  0  0  0
 36 45  1  0  0  0  0
 36 37  1  0  0  0  0
 37 38  1  1  0  0  0
 37 39  1  0  0  0  0
 39 40  1  0  0  0  0
 40 45  2  0  0  0  0
 40 41  1  0  0  0  0
 41 42  2  0  0  0  0
 42 43  1  0  0  0  0
 43 44  2  0  0  0  0
 44 45  1  0  0  0  0
M  END
>  <Name>
Indinavir

>  <CAS #>
150378-17-9

>  <human Clearance (mL/min/kg)>
18.0

>  <Primary mechanism (metabolic, biliary or renal)>
metabolic

>  <seqId>
470.0

>  <Code (mechanism and clearance degree index)>
M1

>  < Five M1 and R1 test groups>
M1_1

>  <formamide>
0

>  <prodrug phosphates>
0

>  <VolSurf_V>
1374.62

>  <VolSurf_S>
892.75

>  <VolSurf_R>
1.53977

>  <VolSurf_G>
1.82467

>  <VolSurf_IW1>
0.0228157

>  <VolSurf_IW2>
0.0625914

>  <VolSurf_IW3>
0.144102

>  <VolSurf_IW4>
0.264075

>  <VolSurf_ID1>
0.00717989

>  <VolSurf_ID2>
0.0264958

>  <VolSurf_ID3>
0.0504507

>  <VolSurf_ID4>
0.115569

>  <VolSurf_HL1>
2.81262

>  <VolSurf_HL2>
3.12903

>  <VolSurf_A>
1.77159

>  <VolSurf_CP>
1.40226

>  <VolSurf_POL>
68.8821

>  <VolSurf_MW>
613.789

>  <VolSurf_FLEX>
4.02044

>  <VolSurf_FLEX_RB>
0.223358

>  <VolSurf_NCC>
0.0

>  <VolSurf_LOGP n-Oct>
2.998

>  <VolSurf_LOGP c-Hex>
-1.356

>  <VolSurf_PSA>
117.77

>  <VolSurf_HSA>
774.98

>  <VolSurf_PSAR>
0.131918

>  <VolSurf_PHSAR>
0.151965

>  <VolSurf_LgD5>
1.08993

>  <VolSurf_LgD6>
2.04423

>  <VolSurf_LgD7>
2.74297

>  <VolSurf_LgD7.5>
2.90016

>  <VolSurf_LgD8>
2.9646

>  <VolSurf_LgD9>
2.99442

>  <VolSurf_LgD10>
2.99637

>  <VolSurf_AUS7.4>
1.884

>  <VolSurf_%FU4>
0.0991422

>  <VolSurf_%FU5>
1.20527

>  <VolSurf_%FU6>
11.0953

>  <VolSurf_%FU7>
55.5725

>  <VolSurf_%FU8>
92.5964

>  <VolSurf_%FU9>
99.178

>  <VolSurf_%FU10>
99.6254

>  <ID>
227

>  <MOKAID>
228

>  <Clearance Route>
possible billary

>  <PC1>
2.27659

>  <PC2>
-5.45143

$$$$
Indisulam
  -OEChem-08301611272D

 24 26  0     0  0  0  0  0  0999 V2000
   -0.8641    3.5138    0.0000 C   0  0  0  0  0  0  0  0  0  0  0  0
   -0.8611    4.5190    0.0000 C   0  0  0  0  0  0  0  0  0  0  0  0
   -1.7271    5.0191    0.0000 C   0  0  0  0  0  0  0  0  0  0  0  0
   -2.5961    4.5241    0.0000 C   0  0  0  0  0  0  0  0  0  0  0  0
   -2.5990    3.5189    0.0000 C   0  0  0  0  0  0  0  0  0  0  0  0
   -1.7330    3.0087    0.0000 C   0  0  0  0  0  0  0  0  0  0  0  0
   -3.4599    5.0279    0.0000 S   0  0  0  0  0  0  0  0  0  0  0  0
   -2.9561    5.8917    0.0000 O   0  0  0  0  0  0  0  0  0  0  0  0
   -3.9637    4.1641    0.0000 O   0  0  0  0  0  0  0  0  0  0  0  0
   -4.3237    5.5317    0.0000 N   0  0  0  0  0  0  0  0  0  0  0  0
    0.0020    3.0138    0.0000 S   0  0  0  0  0  0  0  0  0  0  0  0
   -0.4980    2.1478    0.0000 O   0  0  0  0  0  0  0  0  0  0  0  0
    0.5020    3.8798    0.0000 O   0  0  0  0  0  0  0  0  0  0  0  0
    0.8680    2.5138    0.0000 N   0  0  0  0  0  0  0  0  0  0  0  0
    0.8680    1.5138    0.0000 C   0  0  0  0  0  0  0  0  0  0  0  0
    0.0000    1.0058    0.0000 C   0  0  0  0  0  0  0  0  0  0  0  0
    0.0000    0.0000    0.0000 C   0  0  0  0  0  0  0  0  0  0  0  0
    0.8680   -0.4978    0.0000 C   0  0  0  0  0  0  0  0  0  0  0  0
    1.7360   -0.0012    0.0000 C   0  0  0  0  0  0  0  0  0  0  0  0
    2.6938   -0.3125    0.0000 C   0  0  0  0  0  0  0  0  0  0  0  0
    3.2858    0.5023    0.0000 C   0  0  0  0  0  0  0  0  0  0  0  0
    2.6938    1.3169    0.0000 N   0  0  0  0  0  0  0  0  0  0  0  0
    1.7360    1.0058    0.0000 C   0  0  0  0  0  0  0  0  0  0  0  0
    3.0028   -1.2636    0.0000 Cl  0  0  0  0  0  0  0  0  0  0  0  0
  1  6  2  0  0  0  0
  1  2  1  0  0  0  0
  2  3  2  0  0  0  0
  3  4  1  0  0  0  0
  4  5  2  0  0  0  0
  5  6  1  0  0  0  0
  4  7  1  0  0  0  0
  7  8  2  0  0  0  0
  7  9  2  0  0  0  0
  7 10  1  0  0  0  0
  1 11  1  0  0  0  0
 11 12  2  0  0  0  0
 11 13  2  0  0  0  0
 11 14  1  0  0  0  0
 14 15  1  0  0  0  0
 15 23  2  0  0  0  0
 15 16  1  0  0  0  0
 16 17  2  0  0  0  0
 17 18  1  0  0  0  0
 18 19  2  0  0  0  0
 19 23  1  0  0  0  0
 19 20  1  0  0  0  0
 20 21  2  0  0  0  0
 21 22  1  0  0  0  0
 22 23  1  0  0  0  0
 20 24  1  0  0  0  0
M  END
>  <Name>
Indisulam

>  <CAS #>
165668-41-7

>  <human Clearance (mL/min/kg)>
0.72

>  <Primary mechanism (metabolic, biliary or renal)>
metabolic

>  <seqId>
471.0

>  <Code (mechanism and clearance degree index)>
M1

>  < Five M1 and R1 test groups>
M1_5

>  <formamide>
0

>  <prodrug phosphates>
0

>  <VolSurf_V>
721.375

>  <VolSurf_S>
485.201

>  <VolSurf_R>
1.48676

>  <VolSurf_G>
1.39314

>  <VolSurf_IW1>
0.0773651

>  <VolSurf_IW2>
0.182525

>  <VolSurf_IW3>
0.350688

>  <VolSurf_IW4>
0.923878

>  <VolSurf_ID1>
0.118135

>  <VolSurf_ID2>
0.208601

>  <VolSurf_ID3>
0.244972

>  <VolSurf_ID4>
0.24343

>  <VolSurf_HL1>
2.27692

>  <VolSurf_HL2>
0.744

>  <VolSurf_A>
6.07227

>  <VolSurf_CP>
0.410907

>  <VolSurf_POL>
37.418

>  <VolSurf_MW>
384.838

>  <VolSurf_FLEX>
2.03027

>  <VolSurf_FLEX_RB>
0.406053

>  <VolSurf_NCC>
1.0

>  <VolSurf_LOGP n-Oct>
1.297

>  <VolSurf_LOGP c-Hex>
-1.445

>  <VolSurf_PSA>
122.732

>  <VolSurf_HSA>
362.468

>  <VolSurf_PSAR>
0.252952

>  <VolSurf_PHSAR>
0.338602

>  <VolSurf_LgD5>
1.29512

>  <VolSurf_LgD6>
1.27853

>  <VolSurf_LgD7>
1.13927

>  <VolSurf_LgD7.5>
0.914925

>  <VolSurf_LgD8>
0.539998

>  <VolSurf_LgD9>
-0.612845

>  <VolSurf_LgD10>
-2.26562

>  <VolSurf_AUS7.4>
1.68109

>  <VolSurf_%FU4>
99.9566

>  <VolSurf_%FU5>
99.5675

>  <VolSurf_%FU6>
95.8342

>  <VolSurf_%FU7>
69.5358

>  <VolSurf_%FU8>
17.4744

>  <VolSurf_%FU9>
1.21378

>  <VolSurf_%FU10>
0.0236272

>  <ID>
228

>  <MOKAID>
229

>  <Clearance Route>
uncertain

>  <PC1>
0.351956

>  <PC2>
1.26872

$$$$
Indocyanine Green
  -OEChem-08301611272D

 53 58  0     0  0  0  0  0  0999 V2000
    1.8198    2.6053    0.0000 C   0  0  0  0  0  0  0  0  0  0  0  0
    2.8140    2.4976    0.0000 C   0  0  0  0  0  0  0  0  0  0  0  0
    2.8171    3.4976    0.0000 C   0  0  0  0  0  0  0  0  0  0  0  0
    3.8170    2.5999    0.0000 C   0  0  0  0  0  0  0  0  0  0  0  0
    4.3198    3.4643    0.0000 C   0  0  0  0  0  0  0  0  0  0  0  0
    5.3198    3.4611    0.0000 C   0  0  0  0  0  0  0  0  0  0  0  0
    5.8225    4.3255    0.0000 C   0  0  0  0  0  0  0  0  0  0  0  0
    6.8225    4.3223    0.0000 C   0  0  0  0  0  0  0  0  0  0  0  0
    7.3253    5.1867    0.0000 C   0  0  0  0  0  0  0  0  0  0  0  0
    8.3253    5.1835    0.0000 C   0  0  0  0  0  0  0  0  0  0  0  0
    8.8281    6.0480    0.0000 C   0  0  0  0  0  0  0  0  0  0  0  0
    7.9579    7.5663    0.0000 C   0  0  0  0  0  0  0  0  0  0  0  0
    8.3708    8.4861    0.0000 N   0  3  0  0  0  0  0  0  0  0  0  0
    9.3496    8.6910    0.0000 C   0  0  0  0  0  0  0  0  0  0  0  0
   10.0165    7.9457    0.0000 C   0  0  0  0  0  0  0  0  0  0  0  0
   10.9952    8.1506    0.0000 C   0  0  0  0  0  0  0  0  0  0  0  0
   11.6621    7.4054    0.0000 C   0  0  0  0  0  0  0  0  0  0  0  0
   12.6409    7.6103    0.0000 S   0  0  0  0  0  0  0  0  0  0  0  0
   12.8457    6.6315    0.0000 O   0  0  0  0  0  0  0  0  0  0  0  0
   12.4360    8.5891    0.0000 O   0  0  0  0  0  0  0  0  0  0  0  0
   13.6196    7.8152    0.0000 O   0  5  0  0  0  0  0  0  0  0  0  0
    7.6238    9.1630    0.0000 C   0  0  0  0  0  0  0  0  0  0  0  0
    7.6324   10.1661    0.0000 C   0  0  0  0  0  0  0  0  0  0  0  0
    6.7646   10.6728    0.0000 C   0  0  0  0  0  0  0  0  0  0  0  0
    5.8948   10.1795    0.0000 C   0  0  0  0  0  0  0  0  0  0  0  0
    5.0288   10.6828    0.0000 C   0  0  0  0  0  0  0  0  0  0  0  0
    4.1577   10.1906    0.0000 C   0  0  0  0  0  0  0  0  0  0  0  0
    4.1512    9.1850    0.0000 C   0  0  0  0  0  0  0  0  0  0  0  0
    5.0159    8.6717    0.0000 C   0  0  0  0  0  0  0  0  0  0  0  0
    5.8870    9.1739    0.0000 C   0  0  0  0  0  0  0  0  0  0  0  0
    6.7491    8.6616    0.0000 C   0  0  0  0  0  0  0  0  0  0  0  0
    6.9556    7.6750    0.0000 C   0  0  0  0  0  0  0  0  0  0  0  0
    5.9608    7.5737    0.0000 C   0  0  0  0  0  0  0  0  0  0  0  0
    6.9524    6.6750    0.0000 C   0  0  0  0  0  0  0  0  0  0  0  0
    4.2240    1.6775    0.0000 N   0  0  0  0  0  0  0  0  0  0  0  0
    5.2015    1.4663    0.0000 C   0  0  0  0  0  0  0  0  0  0  0  0
    5.8730    2.2073    0.0000 C   0  0  0  0  0  0  0  0  0  0  0  0
    6.8505    1.9961    0.0000 C   0  0  0  0  0  0  0  0  0  0  0  0
    7.5221    2.7370    0.0000 C   0  0  0  0  0  0  0  0  0  0  0  0
    8.4995    2.5259    0.0000 S   0  0  0  0  0  0  0  0  0  0  0  0
    8.7107    3.5034    0.0000 O   0  0  0  0  0  0  0  0  0  0  0  0
    8.2884    1.5484    0.0000 O   0  0  0  0  0  0  0  0  0  0  0  0
    9.4770    2.3147    0.0000 O   0  0  0  0  0  0  0  0  0  0  0  0
    3.4726    1.0054    0.0000 C   0  0  0  0  0  0  0  0  0  0  0  0
    3.4748    0.0022    0.0000 C   0  0  0  0  0  0  0  0  0  0  0  0
    2.6038   -0.4989    0.0000 C   0  0  0  0  0  0  0  0  0  0  0  0
    1.7371   -0.0000    0.0000 C   0  0  0  0  0  0  0  0  0  0  0  0
    0.8679   -0.4978    0.0000 C   0  0  0  0  0  0  0  0  0  0  0  0
    0.0000    0.0000    0.0000 C   0  0  0  0  0  0  0  0  0  0  0  0
    0.0000    1.0056    0.0000 C   0  0  0  0  0  0  0  0  0  0  0  0
    0.8679    1.5134    0.0000 C   0  0  0  0  0  0  0  0  0  0  0  0
    1.7358    1.0056    0.0000 C   0  0  0  0  0  0  0  0  0  0  0  0
    2.6012    1.5124    0.0000 C   0  0  0  0  0  0  0  0  0  0  0  0
  1  2  1  0  0  0  0
  2 53  1  0  0  0  0
  2  3  1  0  0  0  0
  2  4  1  0  0  0  0
  4  5  2  0  0  0  0
  5  6  1  0  0  0  0
  6  7  2  0  0  0  0
  7  8  1  0  0  0  0
  8  9  2  0  0  0  0
  9 10  1  0  0  0  0
 10 11  2  0  0  0  0
 11 12  1  0  0  0  0
 12 32  1  0  0  0  0
 12 13  2  0  0  0  0
 13 14  1  0  0  0  0
 14 15  1  0  0  0  0
 15 16  1  0  0  0  0
 16 17  1  0  0  0  0
 17 18  1  0  0  0  0
 18 19  2  0  0  0  0
 18 20  2  0  0  0  0
 18 21  1  0  0  0  0
 13 22  1  0  0  0  0
 22 31  2  0  0  0  0
 22 23  1  0  0  0  0
 23 24  2  0  0  0  0
 24 25  1  0  0  0  0
 25 30  2  0  0  0  0
 25 26  1  0  0  0  0
 26 27  2  0  0  0  0
 27 28  1  0  0  0  0
 28 29  2  0  0  0  0
 29 30  1  0  0  0  0
 30 31  1  0  0  0  0
 31 32  1  0  0  0  0
 32 33  1  0  0  0  0
 32 34  1  0  0  0  0
  4 35  1  0  0  0  0
 35 36  1  0  0  0  0
 36 37  1  0  0  0  0
 37 38  1  0  0  0  0
 38 39  1  0  0  0  0
 39 40  1  0  0  0  0
 40 41  2  0  0  0  0
 40 42  2  0  0  0  0
 40 43  1  0  0  0  0
 35 44  1  0  0  0  0
 44 53  2  0  0  0  0
 44 45  1  0  0  0  0
 45 46  2  0  0  0  0
 46 47  1  0  0  0  0
 47 52  2  0  0  0  0
 47 48  1  0  0  0  0
 48 49  2  0  0  0  0
 49 50  1  0  0  0  0
 50 51  2  0  0  0  0
 51 52  1  0  0  0  0
 52 53  1  0  0  0  0
M  CHG  2  13   1  21  -1
M  END
>  <Name>
Indocyanine Green

>  <CAS #>
3599-32-4

>  <human Clearance (mL/min/kg)>
6.8

>  <Primary mechanism (metabolic, biliary or renal)>
biliary

>  <seqId>
472.0

>  <Code (mechanism and clearance degree index)>
B1

>  < Five M1 and R1 test groups>
34

>  <formamide>
0

>  <prodrug phosphates>
0

>  <VolSurf_V>
1651.25

>  <VolSurf_S>
1046.28

>  <VolSurf_R>
1.5782

>  <VolSurf_G>
1.92724

>  <VolSurf_IW1>
0.0380951

>  <VolSurf_IW2>
0.162557

>  <VolSurf_IW3>
0.330539

>  <VolSurf_IW4>
0.933074

>  <VolSurf_ID1>
0.0309557

>  <VolSurf_ID2>
0.0540046

>  <VolSurf_ID3>
0.0770096

>  <VolSurf_ID4>
0.114899

>  <VolSurf_HL1>
0.819843

>  <VolSurf_HL2>
0.147103

>  <VolSurf_A>
7.38157

>  <VolSurf_CP>
1.79859

>  <VolSurf_POL>
83.2631

>  <VolSurf_MW>
751.973

>  <VolSurf_FLEX>
3.98219

>  <VolSurf_FLEX_RB>
0.221233

>  <VolSurf_NCC>
3.0

>  <VolSurf_LOGP n-Oct>
5.419

>  <VolSurf_LOGP c-Hex>
2.517

>  <VolSurf_PSA>
126.52

>  <VolSurf_HSA>
919.764

>  <VolSurf_PSAR>
0.120923

>  <VolSurf_PHSAR>
0.137557

>  <VolSurf_LgD5>
2.974

>  <VolSurf_LgD6>
3.11409

>  <VolSurf_LgD7>
3.11894

>  <VolSurf_LgD7.5>
3.11899

>  <VolSurf_LgD8>
3.119

>  <VolSurf_LgD9>
3.119

>  <VolSurf_LgD10>
3.119

>  <VolSurf_AUS7.4>
0.0

>  <VolSurf_%FU4>
0.0

>  <VolSurf_%FU5>
0.0

>  <VolSurf_%FU6>
0.0

>  <VolSurf_%FU7>
0.0

>  <VolSurf_%FU8>
0.0

>  <VolSurf_%FU9>
0.0

>  <VolSurf_%FU10>
0.0

>  <ID>
229

>  <MOKAID>
230

>  <Clearance Route>
possible billary

>  <PC1>
1.24957

>  <PC2>
-6.4244900000000005

$$$$
Indomethacin
  -OEChem-08301611272D

 25 27  0     0  0  0  0  0  0999 V2000
   -1.7320   -0.0025    0.0000 C   0  0  0  0  0  0  0  0  0  0  0  0
   -0.8653   -0.5013    0.0000 O   0  0  0  0  0  0  0  0  0  0  0  0
    0.0000    0.0000    0.0000 C   0  0  0  0  0  0  0  0  0  0  0  0
   -0.0000    1.0058    0.0000 C   0  0  0  0  0  0  0  0  0  0  0  0
    0.8680    1.5138    0.0000 C   0  0  0  0  0  0  0  0  0  0  0  0
    1.7360    1.0058    0.0000 C   0  0  0  0  0  0  0  0  0  0  0  0
    1.7360   -0.0012    0.0000 C   0  0  0  0  0  0  0  0  0  0  0  0
    0.8680   -0.4978    0.0000 C   0  0  0  0  0  0  0  0  0  0  0  0
    2.6938   -0.3125    0.0000 C   0  0  0  0  0  0  0  0  0  0  0  0
    3.0028   -1.2636    0.0000 C   0  0  0  0  0  0  0  0  0  0  0  0
    3.9809   -1.4715    0.0000 C   0  0  0  0  0  0  0  0  0  0  0  0
    4.6501   -0.7284    0.0000 O   0  0  0  0  0  0  0  0  0  0  0  0
    4.2899   -2.4226    0.0000 O   0  0  0  0  0  0  0  0  0  0  0  0
    3.2858    0.5023    0.0000 C   0  0  0  0  0  0  0  0  0  0  0  0
    4.2858    0.5024    0.0000 C   0  0  0  0  0  0  0  0  0  0  0  0
    2.6938    1.3169    0.0000 N   0  0  0  0  0  0  0  0  0  0  0  0
    3.0028    2.2680    0.0000 C   0  0  0  0  0  0  0  0  0  0  0  0
    3.9810    2.4759    0.0000 O   0  0  0  0  0  0  0  0  0  0  0  0
    2.3337    3.0111    0.0000 C   0  0  0  0  0  0  0  0  0  0  0  0
    1.3511    2.7992    0.0000 C   0  0  0  0  0  0  0  0  0  0  0  0
    0.6819    3.5423    0.0000 C   0  0  0  0  0  0  0  0  0  0  0  0
    0.9853    4.4952    0.0000 C   0  0  0  0  0  0  0  0  0  0  0  0
    0.3129    5.2354    0.0000 Cl  0  0  0  0  0  0  0  0  0  0  0  0
    1.9679    4.7071    0.0000 C   0  0  0  0  0  0  0  0  0  0  0  0
    2.6471    3.9661    0.0000 C   0  0  0  0  0  0  0  0  0  0  0  0
  1  2  1  0  0  0  0
  2  3  1  0  0  0  0
  3  8  2  0  0  0  0
  3  4  1  0  0  0  0
  4  5  2  0  0  0  0
  5  6  1  0  0  0  0
  6 16  1  0  0  0  0
  6  7  2  0  0  0  0
  7  8  1  0  0  0  0
  7  9  1  0  0  0  0
  9 10  1  0  0  0  0
 10 11  1  0  0  0  0
 11 12  2  0  0  0  0
 11 13  1  0  0  0  0
  9 14  2  0  0  0  0
 14 15  1  0  0  0  0
 14 16  1  0  0  0  0
 16 17  1  0  0  0  0
 17 18  2  0  0  0  0
 17 19  1  0  0  0  0
 19 25  2  0  0  0  0
 19 20  1  0  0  0  0
 20 21  2  0  0  0  0
 21 22  1  0  0  0  0
 22 23  1  0  0  0  0
 22 24  2  0  0  0  0
 24 25  1  0  0  0  0
M  END
>  <Name>
Indomethacin

>  <CAS #>
53-86-1

>  <human Clearance (mL/min/kg)>
1.3

>  <Primary mechanism (metabolic, biliary or renal)>
metabolic

>  <seqId>
473.0

>  <Code (mechanism and clearance degree index)>
M1

>  < Five M1 and R1 test groups>
M1_1

>  <formamide>
0

>  <prodrug phosphates>
0

>  <VolSurf_V>
757.125

>  <VolSurf_S>
512.015

>  <VolSurf_R>
1.47872

>  <VolSurf_G>
1.4389

>  <VolSurf_IW1>
0.0784486

>  <VolSurf_IW2>
0.208387

>  <VolSurf_IW3>
0.44649

>  <VolSurf_IW4>
0.661099

>  <VolSurf_ID1>
0.0636126

>  <VolSurf_ID2>
0.0849543

>  <VolSurf_ID3>
0.0806915

>  <VolSurf_ID4>
0.125274

>  <VolSurf_HL1>
1.81321

>  <VolSurf_HL2>
1.46746

>  <VolSurf_A>
4.16153

>  <VolSurf_CP>
1.16299

>  <VolSurf_POL>
35.926

>  <VolSurf_MW>
356.779

>  <VolSurf_FLEX>
1.30688

>  <VolSurf_FLEX_RB>
0.186696

>  <VolSurf_NCC>
1.0

>  <VolSurf_LOGP n-Oct>
3.445

>  <VolSurf_LOGP c-Hex>
0.58

>  <VolSurf_PSA>
77.63

>  <VolSurf_HSA>
434.385

>  <VolSurf_PSAR>
0.151617

>  <VolSurf_PHSAR>
0.178712

>  <VolSurf_LgD5>
2.72623

>  <VolSurf_LgD6>
1.81541

>  <VolSurf_LgD7>
0.892295

>  <VolSurf_LgD7.5>
0.52243

>  <VolSurf_LgD8>
0.281528

>  <VolSurf_LgD9>
0.121119

>  <VolSurf_LgD10>
0.101263

>  <VolSurf_AUS7.4>
0.0

>  <VolSurf_%FU4>
70.2086

>  <VolSurf_%FU5>
19.072

>  <VolSurf_%FU6>
2.30241

>  <VolSurf_%FU7>
0.235113

>  <VolSurf_%FU8>
0.0235611

>  <VolSurf_%FU9>
0.00235661

>  <VolSurf_%FU10>
2.35666E-4

>  <ID>
230

>  <MOKAID>
231

>  <Clearance Route>
metabolic

>  <PC1>
1.0163799999999998

>  <PC2>
0.578106

$$$$
Intoplicine
  -OEChem-08301611272D

 26 29  0     0  0  0  0  0  0999 V2000
   -7.8278    3.4958    0.0000 C   0  0  0  0  0  0  0  0  0  0  0  0
   -6.9628    2.9941    0.0000 N   0  0  0  0  0  0  0  0  0  0  0  0
   -6.0958    3.4924    0.0000 C   0  0  0  0  0  0  0  0  0  0  0  0
   -6.9648    1.9941    0.0000 C   0  0  0  0  0  0  0  0  0  0  0  0
   -6.0998    1.4924    0.0000 C   0  0  0  0  0  0  0  0  0  0  0  0
   -6.1017    0.4924    0.0000 C   0  0  0  0  0  0  0  0  0  0  0  0
   -5.2367   -0.0093    0.0000 N   0  0  0  0  0  0  0  0  0  0  0  0
   -5.2387   -1.0093    0.0000 C   0  0  0  0  0  0  0  0  0  0  0  0
   -6.1172   -1.5142    0.0000 N   0  0  0  0  0  0  0  0  0  0  0  0
   -6.1155   -2.5317    0.0000 C   0  0  0  0  0  0  0  0  0  0  0  0
   -5.2400   -3.0345    0.0000 C   0  0  0  0  0  0  0  0  0  0  0  0
   -5.2387   -4.0345    0.0000 C   0  0  0  0  0  0  0  0  0  0  0  0
   -4.3670   -2.5302    0.0000 C   0  0  0  0  0  0  0  0  0  0  0  0
   -3.4873   -3.0381    0.0000 N   0  0  0  0  0  0  0  0  0  0  0  0
   -2.6096   -2.5280    0.0000 C   0  0  0  0  0  0  0  0  0  0  0  0
   -1.7341   -3.0343    0.0000 C   0  0  0  0  0  0  0  0  0  0  0  0
   -0.8562   -2.5284    0.0000 C   0  0  0  0  0  0  0  0  0  0  0  0
   -0.8634   -1.5098    0.0000 C   0  0  0  0  0  0  0  0  0  0  0  0
    0.0036   -1.0051    0.0000 C   0  0  0  0  0  0  0  0  0  0  0  0
    0.0000    0.0000    0.0000 C   0  0  0  0  0  0  0  0  0  0  0  0
    0.8633    0.5047    0.0000 O   0  0  0  0  0  0  0  0  0  0  0  0
   -0.8777    0.4983    0.0000 C   0  0  0  0  0  0  0  0  0  0  0  0
   -1.7410   -0.0093    0.0000 C   0  0  0  0  0  0  0  0  0  0  0  0
   -1.7352   -1.0093    0.0000 C   0  0  0  0  0  0  0  0  0  0  0  0
   -2.6076   -1.5144    0.0000 C   0  0  0  0  0  0  0  0  0  0  0  0
   -4.3639   -1.5167    0.0000 C   0  0  0  0  0  0  0  0  0  0  0  0
  1  2  1  0  0  0  0
  2  3  1  0  0  0  0
  2  4  1  0  0  0  0
  4  5  1  0  0  0  0
  5  6  1  0  0  0  0
  6  7  1  0  0  0  0
  7  8  1  0  0  0  0
  8 26  2  0  0  0  0
  8  9  1  0  0  0  0
  9 10  2  0  0  0  0
 10 11  1  0  0  0  0
 11 12  1  0  0  0  0
 11 13  2  0  0  0  0
 13 26  1  0  0  0  0
 13 14  1  0  0  0  0
 14 15  1  0  0  0  0
 15 25  2  0  0  0  0
 15 16  1  0  0  0  0
 16 17  2  0  0  0  0
 17 18  1  0  0  0  0
 18 24  2  0  0  0  0
 18 19  1  0  0  0  0
 19 20  2  0  0  0  0
 20 21  1  0  0  0  0
 20 22  1  0  0  0  0
 22 23  2  0  0  0  0
 23 24  1  0  0  0  0
 24 25  1  0  0  0  0
 25 26  1  0  0  0  0
M  END
>  <Name>
Intoplicine

>  <CAS #>
125974-72-3

>  <human Clearance (mL/min/kg)>
18.0

>  <Primary mechanism (metabolic, biliary or renal)>
biliary

>  <seqId>
477.0

>  <Code (mechanism and clearance degree index)>
B1

>  < Five M1 and R1 test groups>
34

>  <formamide>
0

>  <prodrug phosphates>
0

>  <VolSurf_V>
814.875

>  <VolSurf_S>
537.263

>  <VolSurf_R>
1.51672

>  <VolSurf_G>
1.43702

>  <VolSurf_IW1>
0.0399473

>  <VolSurf_IW2>
0.138538

>  <VolSurf_IW3>
0.465918

>  <VolSurf_IW4>
1.1666

>  <VolSurf_ID1>
0.0305521

>  <VolSurf_ID2>
0.0922695

>  <VolSurf_ID3>
0.137892

>  <VolSurf_ID4>
0.183404

>  <VolSurf_HL1>
0.382889

>  <VolSurf_HL2>
0.213636

>  <VolSurf_A>
4.2839

>  <VolSurf_CP>
3.2826

>  <VolSurf_POL>
42.125

>  <VolSurf_MW>
350.457

>  <VolSurf_FLEX>
1.06096

>  <VolSurf_FLEX_RB>
0.117884

>  <VolSurf_NCC>
2.0

>  <VolSurf_LOGP n-Oct>
3.771

>  <VolSurf_LOGP c-Hex>
-1.236

>  <VolSurf_PSA>
70.33

>  <VolSurf_HSA>
466.933

>  <VolSurf_PSAR>
0.130904

>  <VolSurf_PHSAR>
0.150621

>  <VolSurf_LgD5>
-1.4777

>  <VolSurf_LgD6>
-1.46613

>  <VolSurf_LgD7>
-1.365

>  <VolSurf_LgD7.5>
-1.19013

>  <VolSurf_LgD8>
-0.882964

>  <VolSurf_LgD9>
-0.0536428

>  <VolSurf_LgD10>
0.771886

>  <VolSurf_AUS7.4>
0.0

>  <VolSurf_%FU4>
0.0

>  <VolSurf_%FU5>
0.0

>  <VolSurf_%FU6>
0.0

>  <VolSurf_%FU7>
0.0

>  <VolSurf_%FU8>
0.0

>  <VolSurf_%FU9>
0.0

>  <VolSurf_%FU10>
0.0

>  <ID>
231

>  <MOKAID>
232

>  <Clearance Route>
possible billary

>  <PC1>
-0.445525

>  <PC2>
-0.452272

$$$$
Iodixanol
  -OEChem-08301611272D

 62 63  0     1  0  0  0  0  0999 V2000
   -0.8675    1.5027    0.0000 C   0  0  0  0  0  0  0  0  0  0  0  0
   -1.7350    2.0001    0.0000 N   0  0  0  0  0  0  0  0  0  0  0  0
   -2.5995    1.4976    0.0000 C   0  0  0  0  0  0  0  0  0  0  0  0
   -3.4670    1.9950    0.0000 C   0  0  0  0  0  0  0  0  0  0  0  0
   -3.4700    2.9950    0.0000 C   0  0  0  0  0  0  0  0  0  0  0  0
   -4.3375    3.4925    0.0000 N   0  0  0  0  0  0  0  0  0  0  0  0
   -4.3404    4.4925    0.0000 C   0  0  0  0  0  0  0  0  0  0  0  0
   -5.2139    4.9899    0.0000 C   0  0  0  0  0  0  0  0  0  0  0  0
   -5.2169    5.9899    0.0000 C   0  0  0  0  0  0  0  0  0  0  0  0
   -4.3553    6.4976    0.0000 C   0  0  0  0  0  0  0  0  0  0  0  0
   -4.3626    7.4975    0.0000 I   0  0  0  0  0  0  0  0  0  0  0  0
   -3.4818    6.0001    0.0000 C   0  0  0  0  0  0  0  0  0  0  0  0
   -3.4700    4.9950    0.0000 C   0  0  0  0  0  0  0  0  0  0  0  0
   -2.6010    4.5002    0.0000 I   0  0  0  0  0  0  0  0  0  0  0  0
   -2.6203    6.5078    0.0000 C   0  0  0  0  0  0  0  0  0  0  0  0
   -1.7498    6.0154    0.0000 N   0  0  0  0  0  0  0  0  0  0  0  0
   -0.8883    6.5231    0.0000 C   0  0  0  0  0  0  0  0  0  0  0  0
   -0.0179    6.0308    0.0000 C   0  0  1  0  0  0  0  0  0  0  0  0
    0.8437    6.5384    0.0000 C   0  0  0  0  0  0  0  0  0  0  0  0
    1.7141    6.0461    0.0000 O   0  0  0  0  0  0  0  0  0  0  0  0
   -0.0090    5.0308    0.0000 O   0  0  0  0  0  0  0  0  0  0  0  0
   -2.6291    7.5077    0.0000 O   0  0  0  0  0  0  0  0  0  0  0  0
   -6.0859    6.4848    0.0000 C   0  0  0  0  0  0  0  0  0  0  0  0
   -6.0918    7.4848    0.0000 N   0  0  0  0  0  0  0  0  0  0  0  0
   -6.9607    7.9797    0.0000 C   0  0  0  0  0  0  0  0  0  0  0  0
   -6.9666    8.9797    0.0000 C   0  0  1  0  0  0  0  0  0  0  0  0
   -7.8356    9.4746    0.0000 C   0  0  0  0  0  0  0  0  0  0  0  0
   -7.8415   10.4745    0.0000 O   0  0  0  0  0  0  0  0  0  0  0  0
   -6.1036    9.4848    0.0000 O   0  0  0  0  0  0  0  0  0  0  0  0
   -6.9489    5.9797    0.0000 O   0  0  0  0  0  0  0  0  0  0  0  0
   -6.0777    4.4861    0.0000 I   0  0  0  0  0  0  0  0  0  0  0  0
   -5.2020    2.9899    0.0000 C   0  0  0  0  0  0  0  0  0  0  0  0
   -6.0695    3.4874    0.0000 C   0  0  0  0  0  0  0  0  0  0  0  0
   -5.1991    1.9899    0.0000 O   0  0  0  0  0  0  0  0  0  0  0  0
   -4.3316    1.4925    0.0000 O   0  0  0  0  0  0  0  0  0  0  0  0
   -1.7379    3.0001    0.0000 C   0  0  0  0  0  0  0  0  0  0  0  0
   -2.6054    3.4976    0.0000 C   0  0  0  0  0  0  0  0  0  0  0  0
   -0.8734    3.5027    0.0000 O   0  0  0  0  0  0  0  0  0  0  0  0
   -0.8675    0.4975    0.0000 C   0  0  0  0  0  0  0  0  0  0  0  0
    0.0000    0.0000    0.0000 C   0  0  0  0  0  0  0  0  0  0  0  0
    0.8675    0.4975    0.0000 C   0  0  0  0  0  0  0  0  0  0  0  0
    1.7328   -0.0038    0.0000 I   0  0  0  0  0  0  0  0  0  0  0  0
    0.8675    1.5027    0.0000 C   0  0  0  0  0  0  0  0  0  0  0  0
   -0.0000    2.0104    0.0000 C   0  0  0  0  0  0  0  0  0  0  0  0
   -0.0000    3.0104    0.0000 I   0  0  0  0  0  0  0  0  0  0  0  0
    1.7350    2.0001    0.0000 C   0  0  0  0  0  0  0  0  0  0  0  0
    1.7379    3.0001    0.0000 N   0  0  0  0  0  0  0  0  0  0  0  0
    2.6054    3.4976    0.0000 C   0  0  0  0  0  0  0  0  0  0  0  0
    2.6084    4.4976    0.0000 C   0  0  1  0  0  0  0  0  0  0  0  0
    3.4759    4.9950    0.0000 C   0  0  0  0  0  0  0  0  0  0  0  0
    3.4788    5.9950    0.0000 O   0  0  0  0  0  0  0  0  0  0  0  0
    1.7438    5.0001    0.0000 O   0  0  0  0  0  0  0  0  0  0  0  0
    2.5995    1.4976    0.0000 O   0  0  0  0  0  0  0  0  0  0  0  0
    0.0000   -1.0000    0.0000 C   0  0  0  0  0  0  0  0  0  0  0  0
    0.8660   -1.5000    0.0000 N   0  0  0  0  0  0  0  0  0  0  0  0
    0.8660   -2.5000    0.0000 C   0  0  0  0  0  0  0  0  0  0  0  0
    1.7321   -3.0000    0.0000 C   0  0  1  0  0  0  0  0  0  0  0  0
    1.7321   -4.0000    0.0000 C   0  0  0  0  0  0  0  0  0  0  0  0
    2.5981   -4.5000    0.0000 O   0  0  0  0  0  0  0  0  0  0  0  0
    2.5981   -2.5000    0.0000 O   0  0  0  0  0  0  0  0  0  0  0  0
   -0.8660   -1.5000    0.0000 O   0  0  0  0  0  0  0  0  0  0  0  0
   -1.7328   -0.0038    0.0000 I   0  0  0  0  0  0  0  0  0  0  0  0
  1 44  2  0  0  0  0
  1  2  1  0  0  0  0
  2  3  1  0  0  0  0
  3  4  1  0  0  0  0
  4  5  1  0  0  0  0
  5  6  1  0  0  0  0
  6  7  1  0  0  0  0
  7 13  2  0  0  0  0
  7  8  1  0  0  0  0
  8  9  2  0  0  0  0
  9 10  1  0  0  0  0
 10 11  1  0  0  0  0
 10 12  2  0  0  0  0
 12 13  1  0  0  0  0
 13 14  1  0  0  0  0
 12 15  1  0  0  0  0
 15 16  1  0  0  0  0
 16 17  1  0  0  0  0
 17 18  1  0  0  0  0
 18 19  1  0  0  0  0
 19 20  1  0  0  0  0
 18 21  1  1  0  0  0
 15 22  2  0  0  0  0
  9 23  1  0  0  0  0
 23 24  1  0  0  0  0
 24 25  1  0  0  0  0
 25 26  1  0  0  0  0
 26 27  1  0  0  0  0
 27 28  1  0  0  0  0
 26 29  1  1  0  0  0
 23 30  2  0  0  0  0
  8 31  1  0  0  0  0
  6 32  1  0  0  0  0
 32 33  1  0  0  0  0
 32 34  2  0  0  0  0
  4 35  1  0  0  0  0
  2 36  1  0  0  0  0
 36 37  1  0  0  0  0
 36 38  2  0  0  0  0
  1 39  1  0  0  0  0
 39 40  2  0  0  0  0
 40 41  1  0  0  0  0
 41 42  1  0  0  0  0
 41 43  2  0  0  0  0
 43 44  1  0  0  0  0
 44 45  1  0  0  0  0
 43 46  1  0  0  0  0
 46 47  1  0  0  0  0
 47 48  1  0  0  0  0
 48 49  1  0  0  0  0
 49 50  1  0  0  0  0
 50 51  1  0  0  0  0
 49 52  1  6  0  0  0
 46 53  2  0  0  0  0
 40 54  1  0  0  0  0
 54 55  1  0  0  0  0
 55 56  1  0  0  0  0
 56 57  1  0  0  0  0
 57 58  1  0  0  0  0
 58 59  1  0  0  0  0
 57 60  1  6  0  0  0
 54 61  2  0  0  0  0
 39 62  1  0  0  0  0
M  END
>  <Name>
Iodixanol

>  <CAS #>
92339-11-2

>  <human Clearance (mL/min/kg)>
1.44

>  <Primary mechanism (metabolic, biliary or renal)>
renal

>  <seqId>
478.0

>  <Code (mechanism and clearance degree index)>
R1

>  < Five M1 and R1 test groups>
R1_3

>  <formamide>
0

>  <prodrug phosphates>
0

>  <VolSurf_V>
1825.12

>  <VolSurf_S>
1110.61

>  <VolSurf_R>
1.64335

>  <VolSurf_G>
1.90689

>  <VolSurf_IW1>
0.013037

>  <VolSurf_IW2>
0.0215689

>  <VolSurf_IW3>
0.0468393

>  <VolSurf_IW4>
0.0880698

>  <VolSurf_ID1>
0.0251567

>  <VolSurf_ID2>
0.0592162

>  <VolSurf_ID3>
0.0809015

>  <VolSurf_ID4>
0.100803

>  <VolSurf_HL1>
17.4917

>  <VolSurf_HL2>
16.1

>  <VolSurf_A>
3.52657

>  <VolSurf_CP>
0.124061

>  <VolSurf_POL>
105.832

>  <VolSurf_MW>
1550.18

>  <VolSurf_FLEX>
4.96263

>  <VolSurf_FLEX_RB>
0.130596

>  <VolSurf_NCC>
0.0

>  <VolSurf_LOGP n-Oct>
-3.937

>  <VolSurf_LOGP c-Hex>
-9.0

>  <VolSurf_PSA>
338.63

>  <VolSurf_HSA>
771.981

>  <VolSurf_PSAR>
0.304904

>  <VolSurf_PHSAR>
0.43865

>  <VolSurf_LgD5>
-3.937

>  <VolSurf_LgD6>
-3.93701

>  <VolSurf_LgD7>
-3.93713

>  <VolSurf_LgD7.5>
-3.93742

>  <VolSurf_LgD8>
-3.93832

>  <VolSurf_LgD9>
-3.95017

>  <VolSurf_LgD10>
-4.06438

>  <VolSurf_AUS7.4>
2.0

>  <VolSurf_%FU4>
100.0

>  <VolSurf_%FU5>
99.9997

>  <VolSurf_%FU6>
99.997

>  <VolSurf_%FU7>
99.9696

>  <VolSurf_%FU8>
99.6962

>  <VolSurf_%FU9>
97.0129

>  <VolSurf_%FU10>
74.5733

>  <ID>
232

>  <MOKAID>
233

>  <Clearance Route>
possible billary

>  <PC1>
-3.55738

>  <PC2>
-7.7199100000000005

$$$$
Iododoxorubicin
  -OEChem-08301611272D

 39 43  0     1  0  0  0  0  0999 V2000
   -0.0000   -1.0000    0.0000 N   0  0  0  0  0  0  0  0  0  0  0  0
    0.0000    0.0000    0.0000 C   0  0  1  0  0  0  0  0  0  0  0  0
   -0.8675    0.4975    0.0000 C   0  0  0  0  0  0  0  0  0  0  0  0
   -0.8675    1.5027    0.0000 C   0  0  2  0  0  0  0  0  0  0  0  0
   -1.7350    2.0001    0.0000 O   0  0  0  0  0  0  0  0  0  0  0  0
   -1.7379    3.0001    0.0000 C   0  0  1  0  0  0  0  0  0  0  0  0
   -0.8660    3.5053    0.0000 C   0  0  0  0  0  0  0  0  0  0  0  0
   -0.8704    4.5137    0.0000 C   0  0  1  0  0  0  0  0  0  0  0  0
   -1.7466    5.0169    0.0000 C   0  0  0  0  0  0  0  0  0  0  0  0
   -2.6130    4.5062    0.0000 C   0  0  0  0  0  0  0  0  0  0  0  0
   -2.6087    3.4978    0.0000 C   0  0  0  0  0  0  0  0  0  0  0  0
   -3.4722    2.9886    0.0000 C   0  0  0  0  0  0  0  0  0  0  0  0
   -4.3452    3.4815    0.0000 C   0  0  0  0  0  0  0  0  0  0  0  0
   -5.2106    2.9748    0.0000 C   0  0  0  0  0  0  0  0  0  0  0  0
   -6.0818    3.4656    0.0000 C   0  0  0  0  0  0  0  0  0  0  0  0
   -6.0925    4.4712    0.0000 C   0  0  0  0  0  0  0  0  0  0  0  0
   -6.9650    4.9709    0.0000 C   0  0  0  0  0  0  0  0  0  0  0  0
   -7.8282    4.4551    0.0000 C   0  0  0  0  0  0  0  0  0  0  0  0
   -7.8189    3.4495    0.0000 C   0  0  0  0  0  0  0  0  0  0  0  0
   -6.9464    2.9598    0.0000 C   0  0  0  0  0  0  0  0  0  0  0  0
   -6.9375    1.9598    0.0000 O   0  0  0  0  0  0  0  0  0  0  0  0
   -6.0670    1.4676    0.0000 C   0  0  0  0  0  0  0  0  0  0  0  0
   -5.2318    4.9859    0.0000 C   0  0  0  0  0  0  0  0  0  0  0  0
   -4.3549    4.4895    0.0000 C   0  0  0  0  0  0  0  0  0  0  0  0
   -3.4916    5.0046    0.0000 C   0  0  0  0  0  0  0  0  0  0  0  0
   -3.5026    6.0045    0.0000 O   0  0  0  0  0  0  0  0  0  0  0  0
   -5.2437    5.9858    0.0000 O   0  0  0  0  0  0  0  0  0  0  0  0
   -5.2022    1.9748    0.0000 O   0  0  0  0  0  0  0  0  0  0  0  0
   -3.4628    1.9886    0.0000 O   0  0  0  0  0  0  0  0  0  0  0  0
   -0.5312    5.4544    0.0000 C   0  0  0  0  0  0  0  0  0  0  0  0
   -1.1763    6.2186    0.0000 C   0  0  0  0  0  0  0  0  0  0  0  0
   -0.8371    7.1593    0.0000 O   0  0  0  0  0  0  0  0  0  0  0  0
    0.4531    5.6310    0.0000 O   0  0  0  0  0  0  0  0  0  0  0  0
    0.1150    4.3437    0.0000 O   0  0  0  0  0  0  0  0  0  0  0  0
    0.0000    2.0104    0.0000 O   0  0  0  0  0  0  0  0  0  0  0  0
    0.8675    1.5027    0.0000 C   0  0  1  0  0  0  0  0  0  0  0  0
    1.7350    2.0001    0.0000 C   0  0  0  0  0  0  0  0  0  0  0  0
    0.8675    0.4975    0.0000 C   0  0  1  0  0  0  0  0  0  0  0  0
    1.7328   -0.0038    0.0000 I   0  0  0  0  0  0  0  0  0  0  0  0
  2  1  1  1  0  0  0
  2 38  1  0  0  0  0
  2  3  1  0  0  0  0
  3  4  1  0  0  0  0
  4  5  1  6  0  0  0
  6  5  1  6  0  0  0
  6 11  1  0  0  0  0
  6  7  1  0  0  0  0
  7  8  1  0  0  0  0
  8  9  1  0  0  0  0
  9 10  1  0  0  0  0
 10 25  2  0  0  0  0
 10 11  1  0  0  0  0
 11 12  2  0  0  0  0
 12 13  1  0  0  0  0
 13 24  2  0  0  0  0
 13 14  1  0  0  0  0
 14 15  1  0  0  0  0
 15 20  2  0  0  0  0
 15 16  1  0  0  0  0
 16 17  2  0  0  0  0
 17 18  1  0  0  0  0
 18 19  2  0  0  0  0
 19 20  1  0  0  0  0
 20 21  1  0  0  0  0
 21 22  1  0  0  0  0
 16 23  1  0  0  0  0
 23 24  1  0  0  0  0
 24 25  1  0  0  0  0
 25 26  1  0  0  0  0
 23 27  2  0  0  0  0
 14 28  2  0  0  0  0
 12 29  1  0  0  0  0
  8 30  1  0  0  0  0
 30 31  1  0  0  0  0
 31 32  1  0  0  0  0
 30 33  2  0  0  0  0
  8 34  1  6  0  0  0
  4 35  1  0  0  0  0
 35 36  1  0  0  0  0
 36 37  1  1  0  0  0
 36 38  1  0  0  0  0
 38 39  1  1  0  0  0
M  END
>  <Name>
Iododoxorubicin

>  <CAS #>
83997-75-5

>  <human Clearance (mL/min/kg)>
140.0

>  <Primary mechanism (metabolic, biliary or renal)>
metabolic

>  <seqId>
479.0

>  <Code (mechanism and clearance degree index)>
M1

>  < Five M1 and R1 test groups>
M1_2

>  <formamide>
0

>  <prodrug phosphates>
0

>  <VolSurf_V>
1072.88

>  <VolSurf_S>
708.383

>  <VolSurf_R>
1.51454

>  <VolSurf_G>
1.65245

>  <VolSurf_IW1>
0.0523494

>  <VolSurf_IW2>
0.101532

>  <VolSurf_IW3>
0.183426

>  <VolSurf_IW4>
0.153313

>  <VolSurf_ID1>
0.0523746

>  <VolSurf_ID2>
0.118509

>  <VolSurf_ID3>
0.202684

>  <VolSurf_ID4>
0.260112

>  <VolSurf_HL1>
5.35733

>  <VolSurf_HL2>
4.29921

>  <VolSurf_A>
4.74445

>  <VolSurf_CP>
0.265285

>  <VolSurf_POL>
57.443

>  <VolSurf_MW>
654.424

>  <VolSurf_FLEX>
1.60125

>  <VolSurf_FLEX_RB>
0.133437

>  <VolSurf_NCC>
1.0

>  <VolSurf_LOGP n-Oct>
1.876

>  <VolSurf_LOGP c-Hex>
-1.929

>  <VolSurf_PSA>
203.23

>  <VolSurf_HSA>
505.153

>  <VolSurf_PSAR>
0.286893

>  <VolSurf_PHSAR>
0.402314

>  <VolSurf_LgD5>
-1.35792

>  <VolSurf_LgD6>
-1.29225

>  <VolSurf_LgD7>
-0.948354

>  <VolSurf_LgD7.5>
-0.675284

>  <VolSurf_LgD8>
-0.464347

>  <VolSurf_LgD9>
-0.44837

>  <VolSurf_LgD10>
-1.5129

>  <VolSurf_AUS7.4>
0.0

>  <VolSurf_%FU4>
0.0

>  <VolSurf_%FU5>
0.0

>  <VolSurf_%FU6>
0.0

>  <VolSurf_%FU7>
0.0

>  <VolSurf_%FU8>
0.0

>  <VolSurf_%FU9>
0.0

>  <VolSurf_%FU10>
0.0

>  <ID>
233

>  <MOKAID>
234

>  <Clearance Route>
possible billary

>  <PC1>
-2.1458

>  <PC2>
-2.15101

$$$$
Iohexol
  -OEChem-08301611272D

 34 34  0     1  0  0  0  0  0999 V2000
   -3.4670    1.9950    0.0000 C   0  0  0  0  0  0  0  0  0  0  0  0
   -2.5995    1.4976    0.0000 C   0  0  0  0  0  0  0  0  0  0  0  0
   -2.5966    0.4976    0.0000 O   0  0  0  0  0  0  0  0  0  0  0  0
   -1.7350    2.0001    0.0000 N   0  0  0  0  0  0  0  0  0  0  0  0
   -1.7379    3.0001    0.0000 C   0  0  0  0  0  0  0  0  0  0  0  0
   -2.6054    3.4976    0.0000 C   0  0  3  0  0  0  0  0  0  0  0  0
   -3.4700    2.9950    0.0000 O   0  0  0  0  0  0  0  0  0  0  0  0
   -2.6084    4.4976    0.0000 C   0  0  0  0  0  0  0  0  0  0  0  0
   -3.4759    4.9950    0.0000 O   0  0  0  0  0  0  0  0  0  0  0  0
   -0.8675    1.5027    0.0000 C   0  0  0  0  0  0  0  0  0  0  0  0
   -0.8675    0.4975    0.0000 C   0  0  0  0  0  0  0  0  0  0  0  0
   -1.7328   -0.0038    0.0000 I   0  0  0  0  0  0  0  0  0  0  0  0
    0.0000    0.0000    0.0000 C   0  0  0  0  0  0  0  0  0  0  0  0
    0.0000   -1.0000    0.0000 C   0  0  0  0  0  0  0  0  0  0  0  0
   -0.8660   -1.5000    0.0000 O   0  0  0  0  0  0  0  0  0  0  0  0
    0.8660   -1.5000    0.0000 N   0  0  0  0  0  0  0  0  0  0  0  0
    0.8660   -2.5000    0.0000 C   0  0  0  0  0  0  0  0  0  0  0  0
    1.7321   -3.0000    0.0000 C   0  0  3  0  0  0  0  0  0  0  0  0
    2.5981   -2.5000    0.0000 O   0  0  0  0  0  0  0  0  0  0  0  0
    1.7321   -4.0000    0.0000 C   0  0  0  0  0  0  0  0  0  0  0  0
    2.5981   -4.5000    0.0000 O   0  0  0  0  0  0  0  0  0  0  0  0
    0.8675    0.4975    0.0000 C   0  0  0  0  0  0  0  0  0  0  0  0
    1.7328   -0.0038    0.0000 I   0  0  0  0  0  0  0  0  0  0  0  0
    0.8675    1.5027    0.0000 C   0  0  0  0  0  0  0  0  0  0  0  0
    1.7350    2.0001    0.0000 C   0  0  0  0  0  0  0  0  0  0  0  0
    2.5995    1.4976    0.0000 O   0  0  0  0  0  0  0  0  0  0  0  0
    1.7379    3.0001    0.0000 N   0  0  0  0  0  0  0  0  0  0  0  0
    2.6054    3.4976    0.0000 C   0  0  0  0  0  0  0  0  0  0  0  0
    2.6084    4.4976    0.0000 C   0  0  3  0  0  0  0  0  0  0  0  0
    1.7438    5.0001    0.0000 O   0  0  0  0  0  0  0  0  0  0  0  0
    3.4759    4.9950    0.0000 C   0  0  0  0  0  0  0  0  0  0  0  0
    3.4788    5.9950    0.0000 O   0  0  0  0  0  0  0  0  0  0  0  0
   -0.0000    2.0104    0.0000 C   0  0  0  0  0  0  0  0  0  0  0  0
   -0.0000    3.0104    0.0000 I   0  0  0  0  0  0  0  0  0  0  0  0
  1  2  1  0  0  0  0
  2  3  2  0  0  0  0
  2  4  1  0  0  0  0
  4  5  1  0  0  0  0
  5  6  1  0  0  0  0
  6  7  1  0  0  0  0
  6  8  1  0  0  0  0
  8  9  1  0  0  0  0
  4 10  1  0  0  0  0
 10 33  2  0  0  0  0
 10 11  1  0  0  0  0
 11 12  1  0  0  0  0
 11 13  2  0  0  0  0
 13 14  1  0  0  0  0
 14 15  2  0  0  0  0
 14 16  1  0  0  0  0
 16 17  1  0  0  0  0
 17 18  1  0  0  0  0
 18 19  1  0  0  0  0
 18 20  1  0  0  0  0
 20 21  1  0  0  0  0
 13 22  1  0  0  0  0
 22 23  1  0  0  0  0
 22 24  2  0  0  0  0
 24 25  1  0  0  0  0
 25 26  2  0  0  0  0
 25 27  1  0  0  0  0
 27 28  1  0  0  0  0
 28 29  1  0  0  0  0
 29 30  1  0  0  0  0
 29 31  1  0  0  0  0
 31 32  1  0  0  0  0
 24 33  1  0  0  0  0
 33 34  1  0  0  0  0
M  END
>  <Name>
Iohexol

>  <CAS #>
66108-95-0

>  <human Clearance (mL/min/kg)>
2.0

>  <Primary mechanism (metabolic, biliary or renal)>
renal

>  <seqId>
480.0

>  <Code (mechanism and clearance degree index)>
R1

>  < Five M1 and R1 test groups>
R1_3

>  <formamide>
0

>  <prodrug phosphates>
0

>  <VolSurf_V>
1056.75

>  <VolSurf_S>
698.321

>  <VolSurf_R>
1.51327

>  <VolSurf_G>
1.64204

>  <VolSurf_IW1>
0.0247171

>  <VolSurf_IW2>
0.0462858

>  <VolSurf_IW3>
0.0839283

>  <VolSurf_IW4>
0.14691

>  <VolSurf_ID1>
0.0319343

>  <VolSurf_ID2>
0.0444978

>  <VolSurf_ID3>
0.0398848

>  <VolSurf_ID4>
0.0613897

>  <VolSurf_HL1>
14.163

>  <VolSurf_HL2>
11.8871

>  <VolSurf_A>
1.96403

>  <VolSurf_CP>
0.292163

>  <VolSurf_POL>
57.011

>  <VolSurf_MW>
821.138

>  <VolSurf_FLEX>
2.36335

>  <VolSurf_FLEX_RB>
0.112541

>  <VolSurf_NCC>
0.0

>  <VolSurf_LOGP n-Oct>
-2.83

>  <VolSurf_LOGP c-Hex>
-9.0

>  <VolSurf_PSA>
199.66

>  <VolSurf_HSA>
498.661

>  <VolSurf_PSAR>
0.285914

>  <VolSurf_PHSAR>
0.400392

>  <VolSurf_LgD5>
-2.83

>  <VolSurf_LgD6>
-2.83001

>  <VolSurf_LgD7>
-2.83007

>  <VolSurf_LgD7.5>
-2.83021

>  <VolSurf_LgD8>
-2.83066

>  <VolSurf_LgD9>
-2.83658

>  <VolSurf_LgD10>
-2.89369

>  <VolSurf_AUS7.4>
2.0

>  <VolSurf_%FU4>
100.0

>  <VolSurf_%FU5>
99.9998

>  <VolSurf_%FU6>
99.9985

>  <VolSurf_%FU7>
99.9848

>  <VolSurf_%FU8>
99.848

>  <VolSurf_%FU9>
98.4951

>  <VolSurf_%FU10>
86.3547

>  <ID>
234

>  <MOKAID>
235

>  <Clearance Route>
possible billary

>  <PC1>
-1.8355400000000002

>  <PC2>
-2.38794

$$$$
Iomeprol
  -OEChem-08301611272D

 31 31  0     1  0  0  0  0  0999 V2000
   -2.5995    1.4976    0.0000 N   0  0  0  0  0  0  0  0  0  0  0  0
   -3.4670    1.9950    0.0000 C   0  0  0  0  0  0  0  0  0  0  0  0
   -4.3316    1.4925    0.0000 C   0  0  1  0  0  0  0  0  0  0  0  0
   -5.1991    1.9899    0.0000 C   0  0  0  0  0  0  0  0  0  0  0  0
   -6.0636    1.4874    0.0000 O   0  0  0  0  0  0  0  0  0  0  0  0
   -4.3286    0.4925    0.0000 O   0  0  0  0  0  0  0  0  0  0  0  0
   -1.7350    2.0001    0.0000 C   0  0  0  0  0  0  0  0  0  0  0  0
   -0.8675    1.5027    0.0000 C   0  0  0  0  0  0  0  0  0  0  0  0
   -0.8675    0.4975    0.0000 C   0  0  0  0  0  0  0  0  0  0  0  0
    0.0000    0.0000    0.0000 C   0  0  0  0  0  0  0  0  0  0  0  0
    0.0000   -1.0000    0.0000 C   0  0  0  0  0  0  0  0  0  0  0  0
    0.8660   -1.5000    0.0000 N   0  0  0  0  0  0  0  0  0  0  0  0
    0.8660   -2.5000    0.0000 C   0  0  0  0  0  0  0  0  0  0  0  0
    1.7321   -3.0000    0.0000 C   0  0  1  0  0  0  0  0  0  0  0  0
    1.7321   -4.0000    0.0000 C   0  0  0  0  0  0  0  0  0  0  0  0
    2.5981   -4.5000    0.0000 O   0  0  0  0  0  0  0  0  0  0  0  0
    2.5981   -2.5000    0.0000 O   0  0  0  0  0  0  0  0  0  0  0  0
   -0.8660   -1.5000    0.0000 O   0  0  0  0  0  0  0  0  0  0  0  0
    0.8675    0.4975    0.0000 C   0  0  0  0  0  0  0  0  0  0  0  0
    0.8675    1.5027    0.0000 C   0  0  0  0  0  0  0  0  0  0  0  0
   -0.0000    2.0104    0.0000 C   0  0  0  0  0  0  0  0  0  0  0  0
   -0.0000    3.0104    0.0000 I   0  0  0  0  0  0  0  0  0  0  0  0
    1.7350    2.0001    0.0000 N   0  0  0  0  0  0  0  0  0  0  0  0
    2.5995    1.4976    0.0000 C   0  0  0  0  0  0  0  0  0  0  0  0
    1.7379    3.0001    0.0000 C   0  0  0  0  0  0  0  0  0  0  0  0
    2.6054    3.4976    0.0000 C   0  0  0  0  0  0  0  0  0  0  0  0
    2.6084    4.4976    0.0000 O   0  0  0  0  0  0  0  0  0  0  0  0
    0.8734    3.5027    0.0000 O   0  0  0  0  0  0  0  0  0  0  0  0
    1.7328   -0.0038    0.0000 I   0  0  0  0  0  0  0  0  0  0  0  0
   -1.7328   -0.0038    0.0000 I   0  0  0  0  0  0  0  0  0  0  0  0
   -1.7379    3.0001    0.0000 O   0  0  0  0  0  0  0  0  0  0  0  0
  1  2  1  0  0  0  0
  2  3  1  0  0  0  0
  3  4  1  0  0  0  0
  4  5  1  0  0  0  0
  3  6  1  6  0  0  0
  1  7  1  0  0  0  0
  7  8  1  0  0  0  0
  8 21  2  0  0  0  0
  8  9  1  0  0  0  0
  9 10  2  0  0  0  0
 10 11  1  0  0  0  0
 11 12  1  0  0  0  0
 12 13  1  0  0  0  0
 13 14  1  0  0  0  0
 14 15  1  0  0  0  0
 15 16  1  0  0  0  0
 14 17  1  6  0  0  0
 11 18  2  0  0  0  0
 10 19  1  0  0  0  0
 19 20  2  0  0  0  0
 20 21  1  0  0  0  0
 21 22  1  0  0  0  0
 20 23  1  0  0  0  0
 23 24  1  0  0  0  0
 23 25  1  0  0  0  0
 25 26  1  0  0  0  0
 26 27  1  0  0  0  0
 25 28  2  0  0  0  0
 19 29  1  0  0  0  0
  9 30  1  0  0  0  0
  7 31  2  0  0  0  0
M  END
>  <Name>
Iomeprol

>  <CAS #>
78649-41-9

>  <human Clearance (mL/min/kg)>
1.4

>  <Primary mechanism (metabolic, biliary or renal)>
renal

>  <seqId>
481.0

>  <Code (mechanism and clearance degree index)>
R1

>  < Five M1 and R1 test groups>
R1_3

>  <formamide>
0

>  <prodrug phosphates>
0

>  <VolSurf_V>
986.875

>  <VolSurf_S>
659.115

>  <VolSurf_R>
1.49727

>  <VolSurf_G>
1.61233

>  <VolSurf_IW1>
0.0518534

>  <VolSurf_IW2>
0.111605

>  <VolSurf_IW3>
0.23099

>  <VolSurf_IW4>
0.332405

>  <VolSurf_ID1>
0.0519835

>  <VolSurf_ID2>
0.141567

>  <VolSurf_ID3>
0.199915

>  <VolSurf_ID4>
0.243969

>  <VolSurf_HL1>
12.4894

>  <VolSurf_HL2>
11.9211

>  <VolSurf_A>
5.51333

>  <VolSurf_CP>
0.110166

>  <VolSurf_POL>
52.704

>  <VolSurf_MW>
777.085

>  <VolSurf_FLEX>
2.26199

>  <VolSurf_FLEX_RB>
0.125666

>  <VolSurf_NCC>
0.0

>  <VolSurf_LOGP n-Oct>
-2.068

>  <VolSurf_LOGP c-Hex>
-9.0

>  <VolSurf_PSA>
179.43

>  <VolSurf_HSA>
479.685

>  <VolSurf_PSAR>
0.272229

>  <VolSurf_PHSAR>
0.374058

>  <VolSurf_LgD5>
-2.068

>  <VolSurf_LgD6>
-2.06801

>  <VolSurf_LgD7>
-2.06807

>  <VolSurf_LgD7.5>
-2.06821

>  <VolSurf_LgD8>
-2.06866

>  <VolSurf_LgD9>
-2.07458

>  <VolSurf_LgD10>
-2.13172

>  <VolSurf_AUS7.4>
2.0

>  <VolSurf_%FU4>
100.0

>  <VolSurf_%FU5>
99.9998

>  <VolSurf_%FU6>
99.9985

>  <VolSurf_%FU7>
99.9848

>  <VolSurf_%FU8>
99.848

>  <VolSurf_%FU9>
98.4951

>  <VolSurf_%FU10>
86.3491

>  <ID>
235

>  <MOKAID>
236

>  <Clearance Route>
possible billary

>  <PC1>
-1.06997

>  <PC2>
-1.3614

$$$$
Iopamidol
  -OEChem-08301611272D

 31 31  0     1  0  0  0  0  0999 V2000
   -4.3316    1.4925    0.0000 C   0  0  0  0  0  0  0  0  0  0  0  0
   -3.4670    1.9950    0.0000 C   0  0  2  0  0  0  0  0  0  0  0  0
   -3.4700    2.9950    0.0000 O   0  0  0  0  0  0  0  0  0  0  0  0
   -2.5995    1.4976    0.0000 C   0  0  0  0  0  0  0  0  0  0  0  0
   -2.5966    0.4976    0.0000 O   0  0  0  0  0  0  0  0  0  0  0  0
   -1.7350    2.0001    0.0000 N   0  0  0  0  0  0  0  0  0  0  0  0
   -0.8675    1.5027    0.0000 C   0  0  0  0  0  0  0  0  0  0  0  0
   -0.8675    0.4975    0.0000 C   0  0  0  0  0  0  0  0  0  0  0  0
   -1.7328   -0.0038    0.0000 I   0  0  0  0  0  0  0  0  0  0  0  0
    0.0000    0.0000    0.0000 C   0  0  0  0  0  0  0  0  0  0  0  0
    0.0000   -1.0000    0.0000 C   0  0  0  0  0  0  0  0  0  0  0  0
   -0.8660   -1.5000    0.0000 O   0  0  0  0  0  0  0  0  0  0  0  0
    0.8660   -1.5000    0.0000 N   0  0  0  0  0  0  0  0  0  0  0  0
    0.8660   -2.5000    0.0000 C   0  0  0  0  0  0  0  0  0  0  0  0
    1.7321   -3.0000    0.0000 C   0  0  0  0  0  0  0  0  0  0  0  0
    2.5981   -2.5000    0.0000 O   0  0  0  0  0  0  0  0  0  0  0  0
   -0.0000   -3.0000    0.0000 C   0  0  0  0  0  0  0  0  0  0  0  0
   -0.0000   -4.0000    0.0000 O   0  0  0  0  0  0  0  0  0  0  0  0
    0.8675    0.4975    0.0000 C   0  0  0  0  0  0  0  0  0  0  0  0
    1.7328   -0.0038    0.0000 I   0  0  0  0  0  0  0  0  0  0  0  0
    0.8675    1.5027    0.0000 C   0  0  0  0  0  0  0  0  0  0  0  0
    1.7350    2.0001    0.0000 C   0  0  0  0  0  0  0  0  0  0  0  0
    2.5995    1.4976    0.0000 O   0  0  0  0  0  0  0  0  0  0  0  0
    1.7379    3.0001    0.0000 N   0  0  0  0  0  0  0  0  0  0  0  0
    2.6054    3.4976    0.0000 C   0  0  0  0  0  0  0  0  0  0  0  0
    2.6084    4.4976    0.0000 C   0  0  0  0  0  0  0  0  0  0  0  0
    1.7438    5.0001    0.0000 O   0  0  0  0  0  0  0  0  0  0  0  0
    3.4700    2.9950    0.0000 C   0  0  0  0  0  0  0  0  0  0  0  0
    4.3375    3.4925    0.0000 O   0  0  0  0  0  0  0  0  0  0  0  0
   -0.0000    2.0104    0.0000 C   0  0  0  0  0  0  0  0  0  0  0  0
   -0.0000    3.0104    0.0000 I   0  0  0  0  0  0  0  0  0  0  0  0
  1  2  1  0  0  0  0
  2  3  1  6  0  0  0
  2  4  1  0  0  0  0
  4  5  2  0  0  0  0
  4  6  1  0  0  0  0
  6  7  1  0  0  0  0
  7 30  2  0  0  0  0
  7  8  1  0  0  0  0
  8  9  1  0  0  0  0
  8 10  2  0  0  0  0
 10 11  1  0  0  0  0
 11 12  2  0  0  0  0
 11 13  1  0  0  0  0
 13 14  1  0  0  0  0
 14 15  1  0  0  0  0
 15 16  1  0  0  0  0
 14 17  1  0  0  0  0
 17 18  1  0  0  0  0
 10 19  1  0  0  0  0
 19 20  1  0  0  0  0
 19 21  2  0  0  0  0
 21 22  1  0  0  0  0
 22 23  2  0  0  0  0
 22 24  1  0  0  0  0
 24 25  1  0  0  0  0
 25 26  1  0  0  0  0
 26 27  1  0  0  0  0
 25 28  1  0  0  0  0
 28 29  1  0  0  0  0
 21 30  1  0  0  0  0
 30 31  1  0  0  0  0
M  END
>  <Name>
Iopamidol

>  <CAS #>
60166-93-0

>  <human Clearance (mL/min/kg)>
1.9

>  <Primary mechanism (metabolic, biliary or renal)>
renal

>  <seqId>
482.0

>  <Code (mechanism and clearance degree index)>
R1

>  < Five M1 and R1 test groups>
R1_4

>  <formamide>
0

>  <prodrug phosphates>
0

>  <VolSurf_V>
960.5

>  <VolSurf_S>
625.125

>  <VolSurf_R>
1.53649

>  <VolSurf_G>
1.53013

>  <VolSurf_IW1>
0.0339011

>  <VolSurf_IW2>
0.059016

>  <VolSurf_IW3>
0.115947

>  <VolSurf_IW4>
0.159021

>  <VolSurf_ID1>
0.0272182

>  <VolSurf_ID2>
0.0370772

>  <VolSurf_ID3>
0.0598774

>  <VolSurf_ID4>
0.0968536

>  <VolSurf_HL1>
18.9466

>  <VolSurf_HL2>
12.9238

>  <VolSurf_A>
1.42767

>  <VolSurf_CP>
0.321951

>  <VolSurf_POL>
52.704

>  <VolSurf_MW>
777.085

>  <VolSurf_FLEX>
2.40984

>  <VolSurf_FLEX_RB>
0.13388

>  <VolSurf_NCC>
0.0

>  <VolSurf_LOGP n-Oct>
-2.309

>  <VolSurf_LOGP c-Hex>
-9.0

>  <VolSurf_PSA>
188.45

>  <VolSurf_HSA>
436.675

>  <VolSurf_PSAR>
0.301459

>  <VolSurf_PHSAR>
0.431556

>  <VolSurf_LgD5>
-2.309

>  <VolSurf_LgD6>
-2.30901

>  <VolSurf_LgD7>
-2.30913

>  <VolSurf_LgD7.5>
-2.30941

>  <VolSurf_LgD8>
-2.31031

>  <VolSurf_LgD9>
-2.32202

>  <VolSurf_LgD10>
-2.43118

>  <VolSurf_AUS7.4>
2.0

>  <VolSurf_%FU4>
100.0

>  <VolSurf_%FU5>
99.9997

>  <VolSurf_%FU6>
99.997

>  <VolSurf_%FU7>
99.9698

>  <VolSurf_%FU8>
99.6985

>  <VolSurf_%FU9>
97.0454

>  <VolSurf_%FU10>
75.4703

>  <ID>
236

>  <MOKAID>
237

>  <Clearance Route>
possible billary

>  <PC1>
-1.41064

>  <PC2>
-2.07764

$$$$
Iopromide
  -OEChem-08301611272D

 32 32  0     1  0  0  0  0  0999 V2000
   -5.1991    1.9899    0.0000 C   0  0  0  0  0  0  0  0  0  0  0  0
   -4.3316    1.4925    0.0000 O   0  0  0  0  0  0  0  0  0  0  0  0
   -3.4670    1.9950    0.0000 C   0  0  0  0  0  0  0  0  0  0  0  0
   -2.5995    1.4976    0.0000 C   0  0  0  0  0  0  0  0  0  0  0  0
   -2.5966    0.4976    0.0000 O   0  0  0  0  0  0  0  0  0  0  0  0
   -1.7350    2.0001    0.0000 N   0  0  0  0  0  0  0  0  0  0  0  0
   -0.8675    1.5027    0.0000 C   0  0  0  0  0  0  0  0  0  0  0  0
   -0.8675    0.4975    0.0000 C   0  0  0  0  0  0  0  0  0  0  0  0
   -1.7328   -0.0038    0.0000 I   0  0  0  0  0  0  0  0  0  0  0  0
    0.0000    0.0000    0.0000 C   0  0  0  0  0  0  0  0  0  0  0  0
    0.0000   -1.0000    0.0000 C   0  0  0  0  0  0  0  0  0  0  0  0
   -0.8660   -1.5000    0.0000 O   0  0  0  0  0  0  0  0  0  0  0  0
    0.8660   -1.5000    0.0000 N   0  0  0  0  0  0  0  0  0  0  0  0
    0.8660   -2.5000    0.0000 C   0  0  0  0  0  0  0  0  0  0  0  0
    1.7321   -3.0000    0.0000 C   0  0  3  0  0  0  0  0  0  0  0  0
    2.5981   -2.5000    0.0000 O   0  0  0  0  0  0  0  0  0  0  0  0
    1.7321   -4.0000    0.0000 C   0  0  0  0  0  0  0  0  0  0  0  0
    2.5981   -4.5000    0.0000 O   0  0  0  0  0  0  0  0  0  0  0  0
    0.8675    0.4975    0.0000 C   0  0  0  0  0  0  0  0  0  0  0  0
    1.7328   -0.0038    0.0000 I   0  0  0  0  0  0  0  0  0  0  0  0
    0.8675    1.5027    0.0000 C   0  0  0  0  0  0  0  0  0  0  0  0
    1.7350    2.0001    0.0000 C   0  0  0  0  0  0  0  0  0  0  0  0
    2.5995    1.4976    0.0000 O   0  0  0  0  0  0  0  0  0  0  0  0
    1.7379    3.0001    0.0000 N   0  0  0  0  0  0  0  0  0  0  0  0
    0.8734    3.5027    0.0000 C   0  0  0  0  0  0  0  0  0  0  0  0
    2.6054    3.4976    0.0000 C   0  0  0  0  0  0  0  0  0  0  0  0
    2.6084    4.4976    0.0000 C   0  0  3  0  0  0  0  0  0  0  0  0
    1.7438    5.0001    0.0000 O   0  0  0  0  0  0  0  0  0  0  0  0
    3.4759    4.9950    0.0000 C   0  0  0  0  0  0  0  0  0  0  0  0
    3.4788    5.9950    0.0000 O   0  0  0  0  0  0  0  0  0  0  0  0
   -0.0000    2.0104    0.0000 C   0  0  0  0  0  0  0  0  0  0  0  0
   -0.0000    3.0104    0.0000 I   0  0  0  0  0  0  0  0  0  0  0  0
  1  2  1  0  0  0  0
  2  3  1  0  0  0  0
  3  4  1  0  0  0  0
  4  5  2  0  0  0  0
  4  6  1  0  0  0  0
  6  7  1  0  0  0  0
  7 31  2  0  0  0  0
  7  8  1  0  0  0  0
  8  9  1  0  0  0  0
  8 10  2  0  0  0  0
 10 11  1  0  0  0  0
 11 12  2  0  0  0  0
 11 13  1  0  0  0  0
 13 14  1  0  0  0  0
 14 15  1  0  0  0  0
 15 16  1  0  0  0  0
 15 17  1  0  0  0  0
 17 18  1  0  0  0  0
 10 19  1  0  0  0  0
 19 20  1  0  0  0  0
 19 21  2  0  0  0  0
 21 22  1  0  0  0  0
 22 23  2  0  0  0  0
 22 24  1  0  0  0  0
 24 25  1  0  0  0  0
 24 26  1  0  0  0  0
 26 27  1  0  0  0  0
 27 28  1  0  0  0  0
 27 29  1  0  0  0  0
 29 30  1  0  0  0  0
 21 31  1  0  0  0  0
 31 32  1  0  0  0  0
M  END
>  <Name>
Iopromide

>  <CAS #>
73334-07-3

>  <human Clearance (mL/min/kg)>
1.4

>  <Primary mechanism (metabolic, biliary or renal)>
renal

>  <seqId>
483.0

>  <Code (mechanism and clearance degree index)>
R1

>  < Five M1 and R1 test groups>
R1_4

>  <formamide>
0

>  <prodrug phosphates>
0

>  <VolSurf_V>
1026.5

>  <VolSurf_S>
680.161

>  <VolSurf_R>
1.5092

>  <VolSurf_G>
1.62492

>  <VolSurf_IW1>
0.0458871

>  <VolSurf_IW2>
0.0866263

>  <VolSurf_IW3>
0.17807

>  <VolSurf_IW4>
0.192891

>  <VolSurf_ID1>
0.0271209

>  <VolSurf_ID2>
0.0639319

>  <VolSurf_ID3>
0.117803

>  <VolSurf_ID4>
0.185081

>  <VolSurf_HL1>
15.375

>  <VolSurf_HL2>
13.5444

>  <VolSurf_A>
2.74752

>  <VolSurf_CP>
0.182571

>  <VolSurf_POL>
54.539

>  <VolSurf_MW>
791.112

>  <VolSurf_FLEX>
2.39026

>  <VolSurf_FLEX_RB>
0.125803

>  <VolSurf_NCC>
0.0

>  <VolSurf_LOGP n-Oct>
-2.192

>  <VolSurf_LOGP c-Hex>
-9.0

>  <VolSurf_PSA>
171.73

>  <VolSurf_HSA>
508.432

>  <VolSurf_PSAR>
0.252484

>  <VolSurf_PHSAR>
0.337764

>  <VolSurf_LgD5>
-2.192

>  <VolSurf_LgD6>
-2.192

>  <VolSurf_LgD7>
-2.19201

>  <VolSurf_LgD7.5>
-2.19202

>  <VolSurf_LgD8>
-2.19207

>  <VolSurf_LgD9>
-2.19268

>  <VolSurf_LgD10>
-2.19872

>  <VolSurf_AUS7.4>
2.0

>  <VolSurf_%FU4>
100.0

>  <VolSurf_%FU5>
100.0

>  <VolSurf_%FU6>
99.9998

>  <VolSurf_%FU7>
99.9984

>  <VolSurf_%FU8>
99.9844

>  <VolSurf_%FU9>
99.8442

>  <VolSurf_%FU10>
98.4635

>  <ID>
237

>  <MOKAID>
238

>  <Clearance Route>
possible billary

>  <PC1>
-1.0136100000000001

>  <PC2>
-2.04878

$$$$
Iothalamic acid (Iothalamate)
  -OEChem-08301611272D

 20 20  0     0  0  0  0  0  0999 V2000
   -3.4670    1.9950    0.0000 C   0  0  0  0  0  0  0  0  0  0  0  0
   -2.5995    1.4976    0.0000 N   0  0  0  0  0  0  0  0  0  0  0  0
   -1.7350    2.0001    0.0000 C   0  0  0  0  0  0  0  0  0  0  0  0
   -1.7379    3.0001    0.0000 O   0  0  0  0  0  0  0  0  0  0  0  0
   -0.8675    1.5027    0.0000 C   0  0  0  0  0  0  0  0  0  0  0  0
   -0.8675    0.4975    0.0000 C   0  0  0  0  0  0  0  0  0  0  0  0
   -1.7328   -0.0038    0.0000 I   0  0  0  0  0  0  0  0  0  0  0  0
    0.0000    0.0000    0.0000 C   0  0  0  0  0  0  0  0  0  0  0  0
    0.0000   -1.0000    0.0000 N   0  0  0  0  0  0  0  0  0  0  0  0
    0.8660   -1.5000    0.0000 C   0  0  0  0  0  0  0  0  0  0  0  0
    1.7321   -1.0000    0.0000 O   0  0  0  0  0  0  0  0  0  0  0  0
    0.8660   -2.5000    0.0000 C   0  0  0  0  0  0  0  0  0  0  0  0
    0.8675    0.4975    0.0000 C   0  0  0  0  0  0  0  0  0  0  0  0
    1.7328   -0.0038    0.0000 I   0  0  0  0  0  0  0  0  0  0  0  0
    0.8675    1.5027    0.0000 C   0  0  0  0  0  0  0  0  0  0  0  0
    1.7350    2.0001    0.0000 C   0  0  0  0  0  0  0  0  0  0  0  0
    2.5995    1.4976    0.0000 O   0  0  0  0  0  0  0  0  0  0  0  0
    1.7379    3.0001    0.0000 O   0  0  0  0  0  0  0  0  0  0  0  0
   -0.0000    2.0104    0.0000 C   0  0  0  0  0  0  0  0  0  0  0  0
   -0.0000    3.0104    0.0000 I   0  0  0  0  0  0  0  0  0  0  0  0
  1  2  1  0  0  0  0
  2  3  1  0  0  0  0
  3  4  2  0  0  0  0
  3  5  1  0  0  0  0
  5 19  2  0  0  0  0
  5  6  1  0  0  0  0
  6  7  1  0  0  0  0
  6  8  2  0  0  0  0
  8  9  1  0  0  0  0
  9 10  1  0  0  0  0
 10 11  2  0  0  0  0
 10 12  1  0  0  0  0
  8 13  1  0  0  0  0
 13 14  1  0  0  0  0
 13 15  2  0  0  0  0
 15 16  1  0  0  0  0
 16 17  2  0  0  0  0
 16 18  1  0  0  0  0
 15 19  1  0  0  0  0
 19 20  1  0  0  0  0
M  END
>  <Name>
Iothalamic acid (Iothalamate)

>  <CAS #>
2276-90-6

>  <human Clearance (mL/min/kg)>
2.4

>  <Primary mechanism (metabolic, biliary or renal)>
renal

>  <seqId>
484.0

>  <Code (mechanism and clearance degree index)>
R1

>  < Five M1 and R1 test groups>
R1_1

>  <formamide>
0

>  <prodrug phosphates>
0

>  <VolSurf_V>
697.0

>  <VolSurf_S>
464.446

>  <VolSurf_R>
1.50071

>  <VolSurf_G>
1.35034

>  <VolSurf_IW1>
0.0773636

>  <VolSurf_IW2>
0.188535

>  <VolSurf_IW3>
0.382744

>  <VolSurf_IW4>
0.57687

>  <VolSurf_ID1>
0.0410805

>  <VolSurf_ID2>
0.09139

>  <VolSurf_ID3>
0.114187

>  <VolSurf_ID4>
0.121709

>  <VolSurf_HL1>
7.86486

>  <VolSurf_HL2>
7.50562

>  <VolSurf_A>
3.73449

>  <VolSurf_CP>
0.27348

>  <VolSurf_POL>
36.453

>  <VolSurf_MW>
612.906

>  <VolSurf_FLEX>
0.751867

>  <VolSurf_FLEX_RB>
0.125311

>  <VolSurf_NCC>
1.0

>  <VolSurf_LOGP n-Oct>
1.369

>  <VolSurf_LOGP c-Hex>
-4.539

>  <VolSurf_PSA>
104.32

>  <VolSurf_HSA>
360.126

>  <VolSurf_PSAR>
0.224612

>  <VolSurf_PHSAR>
0.289676

>  <VolSurf_LgD5>
-0.418838

>  <VolSurf_LgD6>
-1.32788

>  <VolSurf_LgD7>
-1.88448

>  <VolSurf_LgD7.5>
-1.98033

>  <VolSurf_LgD8>
-2.01565

>  <VolSurf_LgD9>
-2.03134

>  <VolSurf_LgD10>
-2.03385

>  <VolSurf_AUS7.4>
0.0

>  <VolSurf_%FU4>
13.9165

>  <VolSurf_%FU5>
1.59091

>  <VolSurf_%FU6>
0.161402

>  <VolSurf_%FU7>
0.0161636

>  <VolSurf_%FU8>
0.00161656

>  <VolSurf_%FU9>
1.61624E-4

>  <VolSurf_%FU10>
1.61276E-5

>  <ID>
238

>  <MOKAID>
239

>  <Clearance Route>
renal

>  <PC1>
-1.80803

>  <PC2>
-0.46361

$$$$
Irbesartan
  -OEChem-08301611272D

 32 36  0     0  0  0  0  0  0999 V2000
    4.5080   -3.1575    0.0000 C   0  0  0  0  0  0  0  0  0  0  0  0
    4.6075   -2.1625    0.0000 C   0  0  0  0  0  0  0  0  0  0  0  0
    3.7956   -1.5788    0.0000 C   0  0  0  0  0  0  0  0  0  0  0  0
    3.8951   -0.5837    0.0000 C   0  0  0  0  0  0  0  0  0  0  0  0
    3.0832   -0.0000    0.0000 C   0  0  0  0  0  0  0  0  0  0  0  0
    2.1336   -0.3137    0.0000 N   0  0  0  0  0  0  0  0  0  0  0  0
    1.5416    0.4923    0.0000 C   0  0  0  0  0  0  0  0  0  0  0  0
    0.9496   -0.3137    0.0000 C   0  0  0  0  0  0  0  0  0  0  0  0
    0.0000    0.0000    0.0000 C   0  0  0  0  0  0  0  0  0  0  0  0
    0.0051    1.0001    0.0000 C   0  0  0  0  0  0  0  0  0  0  0  0
    0.9578    1.3043    0.0000 C   0  0  0  0  0  0  0  0  0  0  0  0
    2.1254    1.3043    0.0000 C   0  0  0  0  0  0  0  0  0  0  0  0
    1.8116    2.2538    0.0000 O   0  0  0  0  0  0  0  0  0  0  0  0
    3.0781    1.0001    0.0000 N   0  0  0  0  0  0  0  0  0  0  0  0
    3.8841    1.5920    0.0000 C   0  0  0  0  0  0  0  0  0  0  0  0
    3.7745    2.5860    0.0000 C   0  0  0  0  0  0  0  0  0  0  0  0
    2.8530    2.9874    0.0000 C   0  0  0  0  0  0  0  0  0  0  0  0
    2.7433    3.9814    0.0000 C   0  0  0  0  0  0  0  0  0  0  0  0
    3.5459    4.5781    0.0000 C   0  0  0  0  0  0  0  0  0  0  0  0
    4.4674    4.1766    0.0000 C   0  0  0  0  0  0  0  0  0  0  0  0
    4.5864    3.1785    0.0000 C   0  0  0  0  0  0  0  0  0  0  0  0
    3.4319    5.5715    0.0000 C   0  0  0  0  0  0  0  0  0  0  0  0
    2.5151    5.9709    0.0000 C   0  0  0  0  0  0  0  0  0  0  0  0
    2.3968    6.9639    0.0000 C   0  0  0  0  0  0  0  0  0  0  0  0
    3.2035    7.5636    0.0000 C   0  0  0  0  0  0  0  0  0  0  0  0
    4.1285    7.1703    0.0000 C   0  0  0  0  0  0  0  0  0  0  0  0
    4.2386    6.1712    0.0000 C   0  0  0  0  0  0  0  0  0  0  0  0
    5.1554    5.7718    0.0000 C   0  0  0  0  0  0  0  0  0  0  0  0
    5.3681    4.7948    0.0000 N   0  0  0  0  0  0  0  0  0  0  0  0
    6.3649    4.6977    0.0000 N   0  0  0  0  0  0  0  0  0  0  0  0
    6.7676    5.6147    0.0000 N   0  0  0  0  0  0  0  0  0  0  0  0
    6.0162    6.2815    0.0000 N   0  0  0  0  0  0  0  0  0  0  0  0
  1  2  1  0  0  0  0
  2  3  1  0  0  0  0
  3  4  1  0  0  0  0
  4  5  1  0  0  0  0
  5 14  1  0  0  0  0
  5  6  2  0  0  0  0
  6  7  1  0  0  0  0
  7 11  1  0  0  0  0
  7  8  1  0  0  0  0
  8  9  1  0  0  0  0
  9 10  1  0  0  0  0
 10 11  1  0  0  0  0
  7 12  1  0  0  0  0
 12 13  2  0  0  0  0
 12 14  1  0  0  0  0
 14 15  1  0  0  0  0
 15 16  1  0  0  0  0
 16 21  2  0  0  0  0
 16 17  1  0  0  0  0
 17 18  2  0  0  0  0
 18 19  1  0  0  0  0
 19 20  2  0  0  0  0
 20 21  1  0  0  0  0
 19 22  1  0  0  0  0
 22 27  2  0  0  0  0
 22 23  1  0  0  0  0
 23 24  2  0  0  0  0
 24 25  1  0  0  0  0
 25 26  2  0  0  0  0
 26 27  1  0  0  0  0
 27 28  1  0  0  0  0
 28 32  1  0  0  0  0
 28 29  2  0  0  0  0
 29 30  1  0  0  0  0
 30 31  2  0  0  0  0
 31 32  1  0  0  0  0
M  END
>  <Name>
Irbesartan

>  <CAS #>
138402-11-6

>  <human Clearance (mL/min/kg)>
2.3

>  <Primary mechanism (metabolic, biliary or renal)>
biliary

>  <seqId>
486.0

>  <Code (mechanism and clearance degree index)>
B1

>  < Five M1 and R1 test groups>
32

>  <formamide>
0

>  <prodrug phosphates>
0

>  <VolSurf_V>
974.375

>  <VolSurf_S>
659.343

>  <VolSurf_R>
1.4778

>  <VolSurf_G>
1.63386

>  <VolSurf_IW1>
0.0826999

>  <VolSurf_IW2>
0.234087

>  <VolSurf_IW3>
0.484332

>  <VolSurf_IW4>
0.367886

>  <VolSurf_ID1>
0.0162322

>  <VolSurf_ID2>
0.0126141

>  <VolSurf_ID3>
0.0341962

>  <VolSurf_ID4>
0.114854

>  <VolSurf_HL1>
2.7451

>  <VolSurf_HL2>
2.55

>  <VolSurf_A>
3.56955

>  <VolSurf_CP>
4.01092

>  <VolSurf_POL>
47.745

>  <VolSurf_MW>
427.521

>  <VolSurf_FLEX>
1.92996

>  <VolSurf_FLEX_RB>
0.241245

>  <VolSurf_NCC>
1.0

>  <VolSurf_LOGP n-Oct>
4.581

>  <VolSurf_LOGP c-Hex>
1.846

>  <VolSurf_PSA>
57.97

>  <VolSurf_HSA>
601.373

>  <VolSurf_PSAR>
0.0879208

>  <VolSurf_PHSAR>
0.0963961

>  <VolSurf_LgD5>
2.1449

>  <VolSurf_LgD6>
1.68581

>  <VolSurf_LgD7>
1.21791

>  <VolSurf_LgD7.5>
1.12992

>  <VolSurf_LgD8>
1.09716

>  <VolSurf_LgD9>
1.08265

>  <VolSurf_LgD10>
1.08117

>  <VolSurf_AUS7.4>
0.0

>  <VolSurf_%FU4>
0.0

>  <VolSurf_%FU5>
0.0

>  <VolSurf_%FU6>
0.0

>  <VolSurf_%FU7>
0.0

>  <VolSurf_%FU8>
0.0

>  <VolSurf_%FU9>
0.0

>  <VolSurf_%FU10>
0.0

>  <ID>
239

>  <MOKAID>
240

>  <Clearance Route>
possible billary

>  <PC1>
0.952773

>  <PC2>
-2.0087900000000003

$$$$
Irofulven
  -OEChem-08301611272D

 18 20  0     1  0  0  0  0  0999 V2000
    0.0000    0.0000    0.0000 C   0  0  0  0  0  0  0  0  0  0  0  0
    1.0000    0.0000    0.0000 C   0  0  0  0  0  0  0  0  0  0  0  0
    1.5878   -0.8090    0.0000 C   0  0  0  0  0  0  0  0  0  0  0  0
    1.2788   -1.7601    0.0000 C   0  0  0  0  0  0  0  0  0  0  0  0
    1.9479   -2.5032    0.0000 O   0  0  0  0  0  0  0  0  0  0  0  0
    2.5388   -0.5000    0.0000 C   0  0  0  0  0  0  0  0  0  0  0  0
    3.4049   -1.0000    0.0000 C   0  0  0  0  0  0  0  0  0  0  0  0
    3.4049   -2.0000    0.0000 C   0  0  0  0  0  0  0  0  0  0  0  0
    4.2709   -0.5000    0.0000 C   0  0  0  0  0  0  0  0  0  0  0  0
    4.7709   -1.3660    0.0000 C   0  0  0  0  0  0  0  0  0  0  0  0
    5.2709   -0.5000    0.0000 C   0  0  0  0  0  0  0  0  0  0  0  0
    4.2709    0.5000    0.0000 C   0  0  1  0  0  0  0  0  0  0  0  0
    4.6129    1.4397    0.0000 C   0  0  0  0  0  0  0  0  0  0  0  0
    5.9943    0.1961    0.0000 O   0  0  0  0  0  0  0  0  0  0  0  0
    3.4049    1.0000    0.0000 C   0  0  0  0  0  0  0  0  0  0  0  0
    3.4049    2.0000    0.0000 O   0  0  0  0  0  0  0  0  0  0  0  0
    2.5388    0.5000    0.0000 C   0  0  0  0  0  0  0  0  0  0  0  0
    1.5878    0.8090    0.0000 C   0  0  0  0  0  0  0  0  0  0  0  0
  1  2  1  0  0  0  0
  2 18  1  0  0  0  0
  2  3  2  0  0  0  0
  3  4  1  0  0  0  0
  4  5  1  0  0  0  0
  3  6  1  0  0  0  0
  6 17  1  0  0  0  0
  6  7  2  0  0  0  0
  7  8  1  0  0  0  0
  7  9  1  0  0  0  0
  9 11  1  0  0  0  0
  9 10  1  0  0  0  0
 10 11  1  0  0  0  0
  9 12  1  0  0  0  0
 12 13  1  0  0  0  0
 12 14  1  6  0  0  0
 12 15  1  0  0  0  0
 15 16  2  0  0  0  0
 15 17  1  0  0  0  0
 17 18  2  0  0  0  0
M  END
>  <Name>
Irofulven

>  <CAS #>
158440-71-2

>  <human Clearance (mL/min/kg)>
140.0

>  <Primary mechanism (metabolic, biliary or renal)>
metabolic

>  <seqId>
488.0

>  <Code (mechanism and clearance degree index)>
M1

>  < Five M1 and R1 test groups>
M1_3

>  <formamide>
0

>  <prodrug phosphates>
0

>  <VolSurf_V>
555.5

>  <VolSurf_S>
383.287

>  <VolSurf_R>
1.4493

>  <VolSurf_G>
1.27021

>  <VolSurf_IW1>
0.0995409

>  <VolSurf_IW2>
0.248424

>  <VolSurf_IW3>
0.47931

>  <VolSurf_IW4>
0.735976

>  <VolSurf_ID1>
0.0616905

>  <VolSurf_ID2>
0.196844

>  <VolSurf_ID3>
0.325106

>  <VolSurf_ID4>
0.370411

>  <VolSurf_HL1>
5.55488

>  <VolSurf_HL2>
5.64444

>  <VolSurf_A>
4.89081

>  <VolSurf_CP>
0.225846

>  <VolSurf_POL>
26.47

>  <VolSurf_MW>
246.301

>  <VolSurf_FLEX>
0.119477

>  <VolSurf_FLEX_RB>
0.0199128

>  <VolSurf_NCC>
0.0

>  <VolSurf_LOGP n-Oct>
1.394

>  <VolSurf_LOGP c-Hex>
-0.765

>  <VolSurf_PSA>
57.53

>  <VolSurf_HSA>
325.757

>  <VolSurf_PSAR>
0.150096

>  <VolSurf_PHSAR>
0.176604

>  <VolSurf_LgD5>
1.394

>  <VolSurf_LgD6>
1.394

>  <VolSurf_LgD7>
1.394

>  <VolSurf_LgD7.5>
1.394

>  <VolSurf_LgD8>
1.39399

>  <VolSurf_LgD9>
1.39394

>  <VolSurf_LgD10>
1.39342

>  <VolSurf_AUS7.4>
2.0

>  <VolSurf_%FU4>
100.0

>  <VolSurf_%FU5>
100.0

>  <VolSurf_%FU6>
100.0

>  <VolSurf_%FU7>
99.9999

>  <VolSurf_%FU8>
99.9987

>  <VolSurf_%FU9>
99.9867

>  <VolSurf_%FU10>
99.8673

>  <ID>
240

>  <MOKAID>
241

>  <Clearance Route>
metabolic

>  <PC1>
3.15815

>  <PC2>
2.77517

$$$$
Isepamicin
  -OEChem-08301611272D

 39 41  0     1  0  0  0  0  0999 V2000
   -0.8660   -1.5000    0.0000 C   0  0  0  0  0  0  0  0  0  0  0  0
    0.0000   -1.0000    0.0000 N   0  0  0  0  0  0  0  0  0  0  0  0
    0.0000    0.0000    0.0000 C   0  0  2  0  0  0  0  0  0  0  0  0
    0.8675    0.4975    0.0000 C   0  0  1  0  0  0  0  0  0  0  0  0
    1.7328   -0.0038    0.0000 O   0  0  0  0  0  0  0  0  0  0  0  0
    0.8675    1.5027    0.0000 C   0  0  1  0  0  0  0  0  0  0  0  0
    1.7350    2.0001    0.0000 O   0  0  0  0  0  0  0  0  0  0  0  0
    1.7379    3.0001    0.0000 C   0  0  2  0  0  0  0  0  0  0  0  0
    0.8741    3.5040    0.0000 C   0  0  1  0  0  0  0  0  0  0  0  0
    0.0073    3.0053    0.0000 O   0  0  0  0  0  0  0  0  0  0  0  0
    0.8727    4.5040    0.0000 C   0  0  2  0  0  0  0  0  0  0  0  0
    0.0067    5.0040    0.0000 O   0  0  0  0  0  0  0  0  0  0  0  0
    0.0067    6.0040    0.0000 C   0  0  1  0  0  0  0  0  0  0  0  0
    0.8787    6.5040    0.0000 O   0  0  0  0  0  0  0  0  0  0  0  0
    0.8699    7.5091    0.0000 C   0  0  2  0  0  0  0  0  0  0  0  0
    1.7330    8.0142    0.0000 C   0  0  0  0  0  0  0  0  0  0  0  0
    1.7271    9.0141    0.0000 N   0  0  0  0  0  0  0  0  0  0  0  0
   -0.0021    8.0092    0.0000 C   0  0  1  0  0  0  0  0  0  0  0  0
   -0.0065    9.0092    0.0000 O   0  0  0  0  0  0  0  0  0  0  0  0
   -0.8652    7.5041    0.0000 C   0  0  2  0  0  0  0  0  0  0  0  0
   -1.7327    8.0016    0.0000 O   0  0  0  0  0  0  0  0  0  0  0  0
   -0.8652    6.5041    0.0000 C   0  0  1  0  0  0  0  0  0  0  0  0
   -1.7305    6.0028    0.0000 O   0  0  0  0  0  0  0  0  0  0  0  0
    1.7440    5.0053    0.0000 C   0  0  1  0  0  0  0  0  0  0  0  0
    1.7425    6.0053    0.0000 N   0  0  0  0  0  0  0  0  0  0  0  0
    2.6167    4.5065    0.0000 C   0  0  0  0  0  0  0  0  0  0  0  0
    2.6092    3.5014    0.0000 C   0  0  1  0  0  0  0  0  0  0  0  0
    3.4730    2.9976    0.0000 N   0  0  0  0  0  0  0  0  0  0  0  0
    3.4686    1.9976    0.0000 C   0  0  0  0  0  0  0  0  0  0  0  0
    2.6003    1.5015    0.0000 O   0  0  0  0  0  0  0  0  0  0  0  0
    4.3324    1.4937    0.0000 C   0  0  1  0  0  0  0  0  0  0  0  0
    5.2006    1.9899    0.0000 O   0  0  0  0  0  0  0  0  0  0  0  0
    4.3279    0.4938    0.0000 C   0  0  0  0  0  0  0  0  0  0  0  0
    5.1917   -0.0101    0.0000 N   0  0  0  0  0  0  0  0  0  0  0  0
   -0.0000    2.0104    0.0000 O   0  0  0  0  0  0  0  0  0  0  0  0
   -0.8675    1.5027    0.0000 C   0  0  0  0  0  0  0  0  0  0  0  0
   -0.8675    0.4975    0.0000 C   0  0  1  0  0  0  0  0  0  0  0  0
   -1.2077   -0.4429    0.0000 C   0  0  0  0  0  0  0  0  0  0  0  0
   -1.8525    0.6702    0.0000 O   0  0  0  0  0  0  0  0  0  0  0  0
  1  2  1  0  0  0  0
  3  2  1  1  0  0  0
  3 37  1  0  0  0  0
  3  4  1  0  0  0  0
  4  5  1  6  0  0  0
  4  6  1  0  0  0  0
  6  7  1  6  0  0  0
  8  7  1  6  0  0  0
  8 27  1  0  0  0  0
  8  9  1  0  0  0  0
  9 10  1  1  0  0  0
  9 11  1  0  0  0  0
 11 12  1  6  0  0  0
 13 12  1  6  0  0  0
 13 22  1  0  0  0  0
 13 14  1  0  0  0  0
 14 15  1  0  0  0  0
 15 16  1  1  0  0  0
 16 17  1  0  0  0  0
 15 18  1  0  0  0  0
 18 19  1  6  0  0  0
 18 20  1  0  0  0  0
 20 21  1  1  0  0  0
 20 22  1  0  0  0  0
 22 23  1  6  0  0  0
 11 24  1  0  0  0  0
 24 25  1  1  0  0  0
 24 26  1  0  0  0  0
 26 27  1  0  0  0  0
 27 28  1  1  0  0  0
 28 29  1  0  0  0  0
 29 30  2  0  0  0  0
 29 31  1  0  0  0  0
 31 32  1  1  0  0  0
 31 33  1  0  0  0  0
 33 34  1  0  0  0  0
  6 35  1  0  0  0  0
 35 36  1  0  0  0  0
 36 37  1  0  0  0  0
 37 38  1  0  0  0  0
 37 39  1  1  0  0  0
M  END
>  <Name>
Isepamicin

>  <CAS #>
58152-03-7

>  <human Clearance (mL/min/kg)>
1.3

>  <Primary mechanism (metabolic, biliary or renal)>
renal

>  <seqId>
490.0

>  <Code (mechanism and clearance degree index)>
R1

>  < Five M1 and R1 test groups>
R1_3

>  <formamide>
0

>  <prodrug phosphates>
0

>  <VolSurf_V>
1044.88

>  <VolSurf_S>
692.894

>  <VolSurf_R>
1.50799

>  <VolSurf_G>
1.64138

>  <VolSurf_IW1>
0.0384554

>  <VolSurf_IW2>
0.048287

>  <VolSurf_IW3>
0.0567662

>  <VolSurf_IW4>
0.089063

>  <VolSurf_ID1>
0.0403793

>  <VolSurf_ID2>
0.165564

>  <VolSurf_ID3>
0.215836

>  <VolSurf_ID4>
0.0

>  <VolSurf_HL1>
796.5

>  <VolSurf_HL2>
432.0

>  <VolSurf_A>
6.097

>  <VolSurf_CP>
6.25328E-4

>  <VolSurf_POL>
59.2741

>  <VolSurf_MW>
572.627

>  <VolSurf_FLEX>
2.41725

>  <VolSurf_FLEX_RB>
0.115107

>  <VolSurf_NCC>
3.0

>  <VolSurf_LOGP n-Oct>
-8.652

>  <VolSurf_LOGP c-Hex>
-9.0

>  <VolSurf_PSA>
339.65

>  <VolSurf_HSA>
353.244

>  <VolSurf_PSAR>
0.490191

>  <VolSurf_PHSAR>
0.961517

>  <VolSurf_LgD5>
-9.0

>  <VolSurf_LgD6>
-9.0

>  <VolSurf_LgD7>
-9.0

>  <VolSurf_LgD7.5>
-9.0

>  <VolSurf_LgD8>
-9.0

>  <VolSurf_LgD9>
-8.95924

>  <VolSurf_LgD10>
-8.85374

>  <VolSurf_AUS7.4>
0.0

>  <VolSurf_%FU4>
1.16232E-14

>  <VolSurf_%FU5>
1.15432E-10

>  <VolSurf_%FU6>
1.07834E-6

>  <VolSurf_%FU7>
0.00593449

>  <VolSurf_%FU8>
3.09354

>  <VolSurf_%FU9>
49.078

>  <VolSurf_%FU10>
62.8067

>  <ID>
241

>  <MOKAID>
242

>  <Clearance Route>
renal

>  <PC1>
-9.54081

>  <PC2>
-0.710878

$$$$
Isomazole
  -OEChem-08301611272D

 20 22  0     1  0  0  0  0  0999 V2000
    1.8314    0.1722    0.0000 N   0  0  0  0  0  0  0  0  0  0  0  0
    0.8726    0.4909    0.0000 C   0  0  0  0  0  0  0  0  0  0  0  0
    0.0000    0.0000    0.0000 C   0  0  0  0  0  0  0  0  0  0  0  0
   -0.8635    0.5044    0.0000 C   0  0  0  0  0  0  0  0  0  0  0  0
   -0.8585    1.5100    0.0000 N   0  0  0  0  0  0  0  0  0  0  0  0
    0.0102    2.0112    0.0000 C   0  0  0  0  0  0  0  0  0  0  0  0
    0.8792    1.5012    0.0000 C   0  0  0  0  0  0  0  0  0  0  0  0
    1.8422    1.8069    0.0000 N   0  0  0  0  0  0  0  0  0  0  0  0
    2.4307    0.9857    0.0000 C   0  0  0  0  0  0  0  0  0  0  0  0
    3.4307    0.9791    0.0000 C   0  0  0  0  0  0  0  0  0  0  0  0
    3.9263    0.1105    0.0000 C   0  0  0  0  0  0  0  0  0  0  0  0
    4.9262    0.0996    0.0000 C   0  0  0  0  0  0  0  0  0  0  0  0
    5.4358    0.9661    0.0000 C   0  0  0  0  0  0  0  0  0  0  0  0
    4.9454    1.8435    0.0000 C   0  0  0  0  0  0  0  0  0  0  0  0
    3.9402    1.8456    0.0000 C   0  0  0  0  0  0  0  0  0  0  0  0
    3.4446    2.7142    0.0000 O   0  0  0  0  0  0  0  0  0  0  0  0
    2.4446    2.7192    0.0000 C   0  0  0  0  0  0  0  0  0  0  0  0
    6.4357    0.9551    0.0000 S   0  0  3  0  0  0  0  0  0  0  0  0
    6.9452    1.8156    0.0000 C   0  0  0  0  0  0  0  0  0  0  0  0
    6.9262    0.0837    0.0000 O   0  0  0  0  0  0  0  0  0  0  0  0
  1  9  1  0  0  0  0
  1  2  1  0  0  0  0
  2  7  2  0  0  0  0
  2  3  1  0  0  0  0
  3  4  2  0  0  0  0
  4  5  1  0  0  0  0
  5  6  2  0  0  0  0
  6  7  1  0  0  0  0
  7  8  1  0  0  0  0
  8  9  2  0  0  0  0
  9 10  1  0  0  0  0
 10 15  2  0  0  0  0
 10 11  1  0  0  0  0
 11 12  2  0  0  0  0
 12 13  1  0  0  0  0
 13 14  2  0  0  0  0
 14 15  1  0  0  0  0
 15 16  1  0  0  0  0
 16 17  1  0  0  0  0
 13 18  1  0  0  0  0
 18 19  1  0  0  0  0
 18 20  2  0  0  0  0
M  END
>  <Name>
Isomazole

>  <CAS #>
86315-52-8

>  <human Clearance (mL/min/kg)>
20.7

>  <Primary mechanism (metabolic, biliary or renal)>
metabolic

>  <seqId>
492.0

>  <Code (mechanism and clearance degree index)>
M1

>  < Five M1 and R1 test groups>
M1_4

>  <formamide>
0

>  <prodrug phosphates>
0

>  <VolSurf_V>
612.625

>  <VolSurf_S>
434.99

>  <VolSurf_R>
1.40837

>  <VolSurf_G>
1.39251

>  <VolSurf_IW1>
0.045429

>  <VolSurf_IW2>
0.118586

>  <VolSurf_IW3>
0.3395

>  <VolSurf_IW4>
1.05262

>  <VolSurf_ID1>
0.0695733

>  <VolSurf_ID2>
0.120313

>  <VolSurf_ID3>
0.148143

>  <VolSurf_ID4>
0.218284

>  <VolSurf_HL1>
1.59016

>  <VolSurf_HL2>
1.07348

>  <VolSurf_A>
3.01828

>  <VolSurf_CP>
1.15863

>  <VolSurf_POL>
30.801

>  <VolSurf_MW>
287.337

>  <VolSurf_FLEX>
0.359056

>  <VolSurf_FLEX_RB>
0.0718111

>  <VolSurf_NCC>
0.0

>  <VolSurf_LOGP n-Oct>
1.035

>  <VolSurf_LOGP c-Hex>
-1.998

>  <VolSurf_PSA>
86.25

>  <VolSurf_HSA>
348.74

>  <VolSurf_PSAR>
0.198281

>  <VolSurf_PHSAR>
0.247319

>  <VolSurf_LgD5>
-0.251864

>  <VolSurf_LgD6>
0.580917

>  <VolSurf_LgD7>
0.961357

>  <VolSurf_LgD7.5>
1.0101

>  <VolSurf_LgD8>
1.02619

>  <VolSurf_LgD9>
1.02546

>  <VolSurf_LgD10>
0.954418

>  <VolSurf_AUS7.4>
1.97224

>  <VolSurf_%FU4>
0.537084

>  <VolSurf_%FU5>
5.13578

>  <VolSurf_%FU6>
35.1288

>  <VolSurf_%FU7>
84.3979

>  <VolSurf_%FU8>
97.9908

>  <VolSurf_%FU9>
97.826

>  <VolSurf_%FU10>
83.0596

>  <ID>
242

>  <MOKAID>
243

>  <Clearance Route>
metabolic

>  <PC1>
1.62372

>  <PC2>
1.4253

$$$$
Isoproterenol
  -OEChem-08301611272D

 15 15  0     1  0  0  0  0  0999 V2000
   -3.4759    4.9950    0.0000 C   0  0  0  0  0  0  0  0  0  0  0  0
   -2.6084    4.4976    0.0000 C   0  0  0  0  0  0  0  0  0  0  0  0
   -1.7438    5.0001    0.0000 C   0  0  0  0  0  0  0  0  0  0  0  0
   -2.6054    3.4976    0.0000 N   0  0  0  0  0  0  0  0  0  0  0  0
   -1.7379    3.0001    0.0000 C   0  0  0  0  0  0  0  0  0  0  0  0
   -1.7350    2.0001    0.0000 C   0  0  3  0  0  0  0  0  0  0  0  0
   -2.5995    1.4976    0.0000 O   0  0  0  0  0  0  0  0  0  0  0  0
   -0.8675    1.5027    0.0000 C   0  0  0  0  0  0  0  0  0  0  0  0
   -0.8675    0.4975    0.0000 C   0  0  0  0  0  0  0  0  0  0  0  0
    0.0000    0.0000    0.0000 C   0  0  0  0  0  0  0  0  0  0  0  0
    0.8675    0.4975    0.0000 C   0  0  0  0  0  0  0  0  0  0  0  0
    1.7328   -0.0038    0.0000 O   0  0  0  0  0  0  0  0  0  0  0  0
    0.8675    1.5027    0.0000 C   0  0  0  0  0  0  0  0  0  0  0  0
    1.7350    2.0001    0.0000 O   0  0  0  0  0  0  0  0  0  0  0  0
   -0.0000    2.0104    0.0000 C   0  0  0  0  0  0  0  0  0  0  0  0
  1  2  1  0  0  0  0
  2  3  1  0  0  0  0
  2  4  1  0  0  0  0
  4  5  1  0  0  0  0
  5  6  1  0  0  0  0
  6  7  1  0  0  0  0
  6  8  1  0  0  0  0
  8 15  2  0  0  0  0
  8  9  1  0  0  0  0
  9 10  2  0  0  0  0
 10 11  1  0  0  0  0
 11 12  1  0  0  0  0
 11 13  2  0  0  0  0
 13 14  1  0  0  0  0
 13 15  1  0  0  0  0
M  END
>  <Name>
Isoproterenol

>  <CAS #>
7683-59-2

>  <human Clearance (mL/min/kg)>
56.0

>  <Primary mechanism (metabolic, biliary or renal)>
metabolic

>  <seqId>
494.0

>  <Code (mechanism and clearance degree index)>
M1

>  < Five M1 and R1 test groups>
M1_5

>  <formamide>
0

>  <prodrug phosphates>
0

>  <VolSurf_V>
515.625

>  <VolSurf_S>
380.704

>  <VolSurf_R>
1.3544

>  <VolSurf_G>
1.35463

>  <VolSurf_IW1>
0.104835

>  <VolSurf_IW2>
0.231035

>  <VolSurf_IW3>
0.417389

>  <VolSurf_IW4>
0.631595

>  <VolSurf_ID1>
0.0472955

>  <VolSurf_ID2>
0.0958555

>  <VolSurf_ID3>
0.190942

>  <VolSurf_ID4>
0.281319

>  <VolSurf_HL1>
4.05195

>  <VolSurf_HL2>
4.15714

>  <VolSurf_A>
2.48938

>  <VolSurf_CP>
0.514109

>  <VolSurf_POL>
25.794

>  <VolSurf_MW>
212.265

>  <VolSurf_FLEX>
1.15539

>  <VolSurf_FLEX_RB>
0.128376

>  <VolSurf_NCC>
1.0

>  <VolSurf_LOGP n-Oct>
0.792

>  <VolSurf_LOGP c-Hex>
-1.605

>  <VolSurf_PSA>
84.27

>  <VolSurf_HSA>
296.434

>  <VolSurf_PSAR>
0.221353

>  <VolSurf_PHSAR>
0.284279

>  <VolSurf_LgD5>
-2.53999

>  <VolSurf_LgD6>
-2.04757

>  <VolSurf_LgD7>
-1.16055

>  <VolSurf_LgD7.5>
-0.680162

>  <VolSurf_LgD8>
-0.214393

>  <VolSurf_LgD9>
0.457616

>  <VolSurf_LgD10>
0.242544

>  <VolSurf_AUS7.4>
0.527544

>  <VolSurf_%FU4>
0.001092

>  <VolSurf_%FU5>
0.0109189

>  <VolSurf_%FU6>
0.109082

>  <VolSurf_%FU7>
1.08019

>  <VolSurf_%FU8>
9.82127

>  <VolSurf_%FU9>
46.2632

>  <VolSurf_%FU10>
28.0642

>  <ID>
243

>  <MOKAID>
244

>  <Clearance Route>
uncertain

>  <PC1>
-0.582601

>  <PC2>
2.06105

$$$$
Isosorbide Dinitrate
  -OEChem-08301611272D

 18 19  0     1  0  0  0  0  0999 V2000
   -0.0645   -2.6450    0.0000 O   0  0  0  0  0  0  0  0  0  0  0  0
   -0.3687   -1.6924    0.0000 N   0  0  0  0  0  0  0  0  0  0  0  0
   -1.3458   -1.4795    0.0000 O   0  0  0  0  0  0  0  0  0  0  0  0
    0.3042   -0.9526    0.0000 O   0  0  0  0  0  0  0  0  0  0  0  0
   -0.0000    0.0000    0.0000 C   0  0  1  0  0  0  0  0  0  0  0  0
    0.5952    0.8107    0.0000 C   0  0  0  0  0  0  0  0  0  0  0  0
    0.0082    1.6271    0.0000 O   0  0  0  0  0  0  0  0  0  0  0  0
   -0.9503    1.3158    0.0000 C   0  0  2  0  0  0  0  0  0  0  0  0
   -1.9001    1.6292    0.0000 C   0  0  1  0  0  0  0  0  0  0  0  0
   -2.4916    0.8228    0.0000 C   0  0  0  0  0  0  0  0  0  0  0  0
   -1.9074    0.0111    0.0000 O   0  0  0  0  0  0  0  0  0  0  0  0
   -0.9549    0.3157    0.0000 C   0  0  2  0  0  0  0  0  0  0  0  0
   -2.2048    2.5817    0.0000 O   0  0  0  0  0  0  0  0  0  0  0  0
   -3.1820    2.7940    0.0000 N   0  0  0  0  0  0  0  0  0  0  0  0
   -3.8545    2.0539    0.0000 O   0  0  0  0  0  0  0  0  0  0  0  0
   -3.4867    3.7465    0.0000 O   0  0  0  0  0  0  0  0  0  0  0  0
   -0.9480    2.3158    0.0000 H   0  0  0  0  0  0  0  0  0  0  0  0
   -0.9598   -0.6843    0.0000 H   0  0  0  0  0  0  0  0  0  0  0  0
  1  2  2  0  0  0  0
  2  3  2  0  0  0  0
  2  4  1  0  0  0  0
  5  4  1  6  0  0  0
  5 12  1  0  0  0  0
  5  6  1  0  0  0  0
  6  7  1  0  0  0  0
  7  8  1  0  0  0  0
  8 12  1  0  0  0  0
  8  9  1  0  0  0  0
  9 10  1  0  0  0  0
 10 11  1  0  0  0  0
 11 12  1  0  0  0  0
  9 13  1  1  0  0  0
 13 14  1  0  0  0  0
 14 15  2  0  0  0  0
 14 16  2  0  0  0  0
  8 17  1  6  0  0  0
 12 18  1  6  0  0  0
M  END
>  <Name>
Isosorbide Dinitrate

>  <CAS #>
87-33-2

>  <human Clearance (mL/min/kg)>
31.0

>  <Primary mechanism (metabolic, biliary or renal)>
metabolic

>  <seqId>
495.0

>  <Code (mechanism and clearance degree index)>
M1

>  < Five M1 and R1 test groups>
M1_1

>  <formamide>
0

>  <prodrug phosphates>
0

>  <VolSurf_V>
455.25

>  <VolSurf_S>
330.699

>  <VolSurf_R>
1.37663

>  <VolSurf_G>
1.24215

>  <VolSurf_IW1>
0.00912058

>  <VolSurf_IW2>
0.018754

>  <VolSurf_IW3>
0.220812

>  <VolSurf_IW4>
1.35558

>  <VolSurf_ID1>
0.0308722

>  <VolSurf_ID2>
0.0719304

>  <VolSurf_ID3>
0.0885877

>  <VolSurf_ID4>
0.324921

>  <VolSurf_HL1>
2.39378

>  <VolSurf_HL2>
1.064

>  <VolSurf_A>
1.86746

>  <VolSurf_CP>
1.26217

>  <VolSurf_POL>
16.738

>  <VolSurf_MW>
236.136

>  <VolSurf_FLEX>
1.08481

>  <VolSurf_FLEX_RB>
0.271203

>  <VolSurf_NCC>
0.0

>  <VolSurf_LOGP n-Oct>
0.822

>  <VolSurf_LOGP c-Hex>
-1.908

>  <VolSurf_PSA>
117.82

>  <VolSurf_HSA>
212.879

>  <VolSurf_PSAR>
0.356276

>  <VolSurf_PHSAR>
0.553461

>  <VolSurf_LgD5>
0.822

>  <VolSurf_LgD6>
0.822

>  <VolSurf_LgD7>
0.822

>  <VolSurf_LgD7.5>
0.822

>  <VolSurf_LgD8>
0.822

>  <VolSurf_LgD9>
0.822

>  <VolSurf_LgD10>
0.822

>  <VolSurf_AUS7.4>
2.0

>  <VolSurf_%FU4>
31.1255

>  <VolSurf_%FU5>
81.8813

>  <VolSurf_%FU6>
97.8351

>  <VolSurf_%FU7>
99.7792

>  <VolSurf_%FU8>
99.9779

>  <VolSurf_%FU9>
99.9978

>  <VolSurf_%FU10>
99.9998

>  <ID>
244

>  <MOKAID>
245

>  <Clearance Route>
metabolic

>  <PC1>
1.6000299999999998

>  <PC2>
1.8163900000000002

$$$$
Isosorbide-5-Mononitrate
  -OEChem-08301611272D

 15 16  0     1  0  0  0  0  0999 V2000
    0.3042   -0.9526    0.0000 O   0  0  0  0  0  0  0  0  0  0  0  0
   -0.0000   -0.0000    0.0000 C   0  0  1  0  0  0  0  0  0  0  0  0
    0.5952    0.8107    0.0000 C   0  0  0  0  0  0  0  0  0  0  0  0
    0.0082    1.6271    0.0000 O   0  0  0  0  0  0  0  0  0  0  0  0
   -0.9503    1.3158    0.0000 C   0  0  2  0  0  0  0  0  0  0  0  0
   -1.9001    1.6292    0.0000 C   0  0  1  0  0  0  0  0  0  0  0  0
   -2.4916    0.8228    0.0000 C   0  0  0  0  0  0  0  0  0  0  0  0
   -1.9074    0.0111    0.0000 O   0  0  0  0  0  0  0  0  0  0  0  0
   -0.9549    0.3157    0.0000 C   0  0  2  0  0  0  0  0  0  0  0  0
   -2.2048    2.5817    0.0000 O   0  0  0  0  0  0  0  0  0  0  0  0
   -3.1820    2.7940    0.0000 N   0  0  0  0  0  0  0  0  0  0  0  0
   -3.8545    2.0539    0.0000 O   0  0  0  0  0  0  0  0  0  0  0  0
   -3.4867    3.7465    0.0000 O   0  0  0  0  0  0  0  0  0  0  0  0
   -0.9480    2.3158    0.0000 H   0  0  0  0  0  0  0  0  0  0  0  0
   -0.9598   -0.6843    0.0000 H   0  0  0  0  0  0  0  0  0  0  0  0
  2  1  1  6  0  0  0
  2  9  1  0  0  0  0
  2  3  1  0  0  0  0
  3  4  1  0  0  0  0
  4  5  1  0  0  0  0
  5  9  1  0  0  0  0
  5  6  1  0  0  0  0
  6  7  1  0  0  0  0
  7  8  1  0  0  0  0
  8  9  1  0  0  0  0
  6 10  1  1  0  0  0
 10 11  1  0  0  0  0
 11 12  2  0  0  0  0
 11 13  2  0  0  0  0
  5 14  1  6  0  0  0
  9 15  1  6  0  0  0
M  END
>  <Name>
Isosorbide-5-Mononitrate

>  <CAS #>
16051-77-7

>  <human Clearance (mL/min/kg)>
2.0

>  <Primary mechanism (metabolic, biliary or renal)>
metabolic

>  <seqId>
497.0

>  <Code (mechanism and clearance degree index)>
M1

>  < Five M1 and R1 test groups>
M1_2

>  <formamide>
0

>  <prodrug phosphates>
0

>  <VolSurf_V>
383.125

>  <VolSurf_S>
289.29

>  <VolSurf_R>
1.32436

>  <VolSurf_G>
1.20763

>  <VolSurf_IW1>
0.068661

>  <VolSurf_IW2>
0.139135

>  <VolSurf_IW3>
0.622481

>  <VolSurf_IW4>
1.32313

>  <VolSurf_ID1>
0.0949752

>  <VolSurf_ID2>
0.171433

>  <VolSurf_ID3>
0.311177

>  <VolSurf_ID4>
0.0

>  <VolSurf_HL1>
13.2963

>  <VolSurf_HL2>
26.4545

>  <VolSurf_A>
4.34944

>  <VolSurf_CP>
0.103156

>  <VolSurf_POL>
14.761

>  <VolSurf_MW>
191.139

>  <VolSurf_FLEX>
0.793663

>  <VolSurf_FLEX_RB>
0.264554

>  <VolSurf_NCC>
0.0

>  <VolSurf_LOGP n-Oct>
-0.383

>  <VolSurf_LOGP c-Hex>
-2.561

>  <VolSurf_PSA>
91.67

>  <VolSurf_HSA>
197.62

>  <VolSurf_PSAR>
0.316879

>  <VolSurf_PHSAR>
0.46387

>  <VolSurf_LgD5>
-0.383

>  <VolSurf_LgD6>
-0.383

>  <VolSurf_LgD7>
-0.383

>  <VolSurf_LgD7.5>
-0.383

>  <VolSurf_LgD8>
-0.383

>  <VolSurf_LgD9>
-0.383

>  <VolSurf_LgD10>
-0.383005

>  <VolSurf_AUS7.4>
2.0

>  <VolSurf_%FU4>
31.1255

>  <VolSurf_%FU5>
81.8813

>  <VolSurf_%FU6>
97.8351

>  <VolSurf_%FU7>
99.7792

>  <VolSurf_%FU8>
99.9779

>  <VolSurf_%FU9>
99.9977

>  <VolSurf_%FU10>
99.9987

>  <ID>
245

>  <MOKAID>
246

>  <Clearance Route>
uncertain

>  <PC1>
0.935946

>  <PC2>
3.8692699999999998

$$$$
Isoxicam
  -OEChem-08301611272D

 23 25  0     1  0  0  0  0  0999 V2000
    4.3394    1.5082    0.0000 C   0  0  0  0  0  0  0  0  0  0  0  0
    3.4735    1.0079    0.0000 N   0  0  3  0  0  0  0  0  0  0  0  0
    3.4748    0.0023    0.0000 C   0  0  0  0  0  0  0  0  0  0  0  0
    2.6038   -0.4989    0.0000 C   0  0  0  0  0  0  0  0  0  0  0  0
    2.6037   -1.4989    0.0000 O   0  0  0  0  0  0  0  0  0  0  0  0
    1.7371    0.0000    0.0000 C   0  0  0  0  0  0  0  0  0  0  0  0
    0.8679   -0.4977    0.0000 C   0  0  0  0  0  0  0  0  0  0  0  0
    0.0000    0.0000    0.0000 C   0  0  0  0  0  0  0  0  0  0  0  0
   -0.0000    1.0056    0.0000 C   0  0  0  0  0  0  0  0  0  0  0  0
    0.8679    1.5135    0.0000 C   0  0  0  0  0  0  0  0  0  0  0  0
    1.7358    1.0056    0.0000 C   0  0  0  0  0  0  0  0  0  0  0  0
    2.6012    1.5123    0.0000 S   0  0  0  0  0  0  0  0  0  0  0  0
    1.9555    2.2759    0.0000 O   0  0  0  0  0  0  0  0  0  0  0  0
    3.2428    2.2794    0.0000 O   0  0  0  0  0  0  0  0  0  0  0  0
    4.3408   -0.4978    0.0000 C   0  0  0  0  0  0  0  0  0  0  0  0
    4.3407   -1.4978    0.0000 O   0  0  0  0  0  0  0  0  0  0  0  0
    5.2069    0.0022    0.0000 N   0  0  0  0  0  0  0  0  0  0  0  0
    6.0728   -0.4979    0.0000 C   0  0  0  0  0  0  0  0  0  0  0  0
    6.9873   -0.0895    0.0000 C   0  0  0  0  0  0  0  0  0  0  0  0
    7.6553   -0.8337    0.0000 C   0  0  0  0  0  0  0  0  0  0  0  0
    8.6497   -0.7276    0.0000 C   0  0  0  0  0  0  0  0  0  0  0  0
    7.1591   -1.7024    0.0000 O   0  0  0  0  0  0  0  0  0  0  0  0
    6.1763   -1.4942    0.0000 N   0  0  0  0  0  0  0  0  0  0  0  0
  1  2  1  0  0  0  0
  2 12  1  0  0  0  0
  2  3  1  0  0  0  0
  3  4  2  0  0  0  0
  4  5  1  0  0  0  0
  4  6  1  0  0  0  0
  6 11  2  0  0  0  0
  6  7  1  0  0  0  0
  7  8  2  0  0  0  0
  8  9  1  0  0  0  0
  9 10  2  0  0  0  0
 10 11  1  0  0  0  0
 11 12  1  0  0  0  0
 12 13  2  0  0  0  0
 12 14  2  0  0  0  0
  3 15  1  0  0  0  0
 15 16  2  0  0  0  0
 15 17  1  0  0  0  0
 17 18  1  0  0  0  0
 18 23  2  0  0  0  0
 18 19  1  0  0  0  0
 19 20  2  0  0  0  0
 20 21  1  0  0  0  0
 20 22  1  0  0  0  0
 22 23  1  0  0  0  0
M  END
>  <Name>
Isoxicam

>  <CAS #>
34552-84-6

>  <human Clearance (mL/min/kg)>
0.07

>  <Primary mechanism (metabolic, biliary or renal)>
metabolic

>  <seqId>
498.0

>  <Code (mechanism and clearance degree index)>
M1

>  < Five M1 and R1 test groups>
M1_5

>  <formamide>
0

>  <prodrug phosphates>
0

>  <VolSurf_V>
670.625

>  <VolSurf_S>
461.775

>  <VolSurf_R>
1.45228

>  <VolSurf_G>
1.39136

>  <VolSurf_IW1>
0.0386611

>  <VolSurf_IW2>
0.10143

>  <VolSurf_IW3>
0.284429

>  <VolSurf_IW4>
1.1538

>  <VolSurf_ID1>
0.0252526

>  <VolSurf_ID2>
0.0460431

>  <VolSurf_ID3>
0.114843

>  <VolSurf_ID4>
0.286196

>  <VolSurf_HL1>
2.91882

>  <VolSurf_HL2>
1.65957

>  <VolSurf_A>
2.09585

>  <VolSurf_CP>
1.27097

>  <VolSurf_POL>
31.726

>  <VolSurf_MW>
334.327

>  <VolSurf_FLEX>
0.446844

>  <VolSurf_FLEX_RB>
0.111711

>  <VolSurf_NCC>
1.0

>  <VolSurf_LOGP n-Oct>
2.406

>  <VolSurf_LOGP c-Hex>
-1.238

>  <VolSurf_PSA>
123.102

>  <VolSurf_HSA>
338.672

>  <VolSurf_PSAR>
0.266586

>  <VolSurf_PHSAR>
0.363485

>  <VolSurf_LgD5>
1.3309

>  <VolSurf_LgD6>
0.378228

>  <VolSurf_LgD7>
-0.504054

>  <VolSurf_LgD7.5>
-0.811954

>  <VolSurf_LgD8>
-0.983668

>  <VolSurf_LgD9>
-1.08162

>  <VolSurf_LgD10>
-1.09275

>  <VolSurf_AUS7.4>
0.0

>  <VolSurf_%FU4>
47.7808

>  <VolSurf_%FU5>
8.38308

>  <VolSurf_%FU6>
0.906718

>  <VolSurf_%FU7>
0.0914178

>  <VolSurf_%FU8>
0.00914931

>  <VolSurf_%FU9>
9.15006E-4

>  <VolSurf_%FU10>
9.15014E-5

>  <ID>
246

>  <MOKAID>
247

>  <Clearance Route>
uncertain

>  <PC1>
-0.781377

>  <PC2>
0.5132140000000001

$$$$
Isradipine
  -OEChem-08301611272D

 27 29  0     1  0  0  0  0  0999 V2000
   -1.7286    0.7529    0.0000 C   0  0  0  0  0  0  0  0  0  0  0  0
   -0.8633    1.2541    0.0000 O   0  0  0  0  0  0  0  0  0  0  0  0
   -0.8648    2.2541    0.0000 C   0  0  0  0  0  0  0  0  0  0  0  0
   -1.7315    2.7529    0.0000 O   0  0  0  0  0  0  0  0  0  0  0  0
    0.0005    2.7554    0.0000 C   0  0  0  0  0  0  0  0  0  0  0  0
    0.0005    3.7606    0.0000 C   0  0  0  0  0  0  0  0  0  0  0  0
   -0.8670    4.2580    0.0000 C   0  0  0  0  0  0  0  0  0  0  0  0
    0.8680    4.2683    0.0000 N   0  0  0  0  0  0  0  0  0  0  0  0
    1.7355    3.7606    0.0000 C   0  0  0  0  0  0  0  0  0  0  0  0
    1.7355    2.7554    0.0000 C   0  0  0  0  0  0  0  0  0  0  0  0
    0.8680    2.2579    0.0000 C   0  0  3  0  0  0  0  0  0  0  0  0
    0.8680    0.5079    0.0000 C   0  0  0  0  0  0  0  0  0  0  0  0
    0.0000    0.0000    0.0000 C   0  0  0  0  0  0  0  0  0  0  0  0
   -0.0000   -1.0058    0.0000 C   0  0  0  0  0  0  0  0  0  0  0  0
    0.8680   -1.5037    0.0000 C   0  0  0  0  0  0  0  0  0  0  0  0
    1.7360   -1.0071    0.0000 C   0  0  0  0  0  0  0  0  0  0  0  0
    2.6938   -1.3184    0.0000 N   0  0  0  0  0  0  0  0  0  0  0  0
    3.2858   -0.5036    0.0000 O   0  0  0  0  0  0  0  0  0  0  0  0
    2.6938    0.3110    0.0000 N   0  0  0  0  0  0  0  0  0  0  0  0
    1.7360   -0.0000    0.0000 C   0  0  0  0  0  0  0  0  0  0  0  0
    2.6008    2.2541    0.0000 C   0  0  0  0  0  0  0  0  0  0  0  0
    2.5993    1.2541    0.0000 O   0  0  0  0  0  0  0  0  0  0  0  0
    3.4675    2.7529    0.0000 O   0  0  0  0  0  0  0  0  0  0  0  0
    4.3328    2.2516    0.0000 C   0  0  0  0  0  0  0  0  0  0  0  0
    5.1996    2.7504    0.0000 C   0  0  0  0  0  0  0  0  0  0  0  0
    4.3314    1.2516    0.0000 C   0  0  0  0  0  0  0  0  0  0  0  0
    2.6030    4.2580    0.0000 C   0  0  0  0  0  0  0  0  0  0  0  0
  1  2  1  0  0  0  0
  2  3  1  0  0  0  0
  3  4  2  0  0  0  0
  3  5  1  0  0  0  0
  5 11  1  0  0  0  0
  5  6  2  0  0  0  0
  6  7  1  0  0  0  0
  6  8  1  0  0  0  0
  8  9  1  0  0  0  0
  9 10  2  0  0  0  0
 10 11  1  0  0  0  0
 11 12  1  0  0  0  0
 12 20  1  0  0  0  0
 12 13  2  0  0  0  0
 13 14  1  0  0  0  0
 14 15  2  0  0  0  0
 15 16  1  0  0  0  0
 16 20  1  0  0  0  0
 16 17  2  0  0  0  0
 17 18  1  0  0  0  0
 18 19  1  0  0  0  0
 19 20  2  0  0  0  0
 10 21  1  0  0  0  0
 21 22  2  0  0  0  0
 21 23  1  0  0  0  0
 23 24  1  0  0  0  0
 24 25  1  0  0  0  0
 24 26  1  0  0  0  0
  9 27  1  0  0  0  0
M  END
>  <Name>
Isradipine

>  <CAS #>
75695-93-1

>  <human Clearance (mL/min/kg)>
26.0

>  <Primary mechanism (metabolic, biliary or renal)>
metabolism

>  <seqId>
499.0

>  <Code (mechanism and clearance degree index)>
M1

>  < Five M1 and R1 test groups>
M1_4

>  <formamide>
0

>  <prodrug phosphates>
0

>  <VolSurf_V>
782.25

>  <VolSurf_S>
523.987

>  <VolSurf_R>
1.49288

>  <VolSurf_G>
1.44181

>  <VolSurf_IW1>
0.0479918

>  <VolSurf_IW2>
0.109066

>  <VolSurf_IW3>
0.219125

>  <VolSurf_IW4>
0.165861

>  <VolSurf_ID1>
0.0275408

>  <VolSurf_ID2>
0.0233868

>  <VolSurf_ID3>
0.0356344

>  <VolSurf_ID4>
0.0506639

>  <VolSurf_HL1>
3.04297

>  <VolSurf_HL2>
1.88024

>  <VolSurf_A>
1.28001

>  <VolSurf_CP>
2.46634

>  <VolSurf_POL>
37.488

>  <VolSurf_MW>
371.387

>  <VolSurf_FLEX>
1.41795

>  <VolSurf_FLEX_RB>
0.128905

>  <VolSurf_NCC>
0.0

>  <VolSurf_LOGP n-Oct>
3.03

>  <VolSurf_LOGP c-Hex>
1.869

>  <VolSurf_PSA>
103.03

>  <VolSurf_HSA>
420.957

>  <VolSurf_PSAR>
0.196627

>  <VolSurf_PHSAR>
0.244752

>  <VolSurf_LgD5>
3.02834

>  <VolSurf_LgD6>
3.02983

>  <VolSurf_LgD7>
3.02998

>  <VolSurf_LgD7.5>
3.02999

>  <VolSurf_LgD8>
3.03

>  <VolSurf_LgD9>
3.03

>  <VolSurf_LgD10>
3.03

>  <VolSurf_AUS7.4>
2.0

>  <VolSurf_%FU4>
96.3183

>  <VolSurf_%FU5>
99.6192

>  <VolSurf_%FU6>
99.9618

>  <VolSurf_%FU7>
99.9962

>  <VolSurf_%FU8>
99.9996

>  <VolSurf_%FU9>
100.0

>  <VolSurf_%FU10>
100.0

>  <ID>
247

>  <MOKAID>
248

>  <Clearance Route>
metabolic

>  <PC1>
4.02769

>  <PC2>
-0.533637

$$$$
Ixabepilone
  -OEChem-08301611272D

 36 38  0     1  0  0  0  0  0999 V2000
   -3.3060    0.9571    0.0000 C   0  0  0  0  0  0  0  0  0  0  0  0
   -3.3059   -0.7929    0.0000 C   0  0  1  0  0  0  0  0  0  0  0  0
   -4.1719   -1.2930    0.0000 C   0  0  0  0  0  0  0  0  0  0  0  0
   -5.0381   -0.7929    0.0000 C   0  0  0  0  0  0  0  0  0  0  0  0
   -5.9044   -1.2930    0.0000 C   0  0  0  0  0  0  0  0  0  0  0  0
   -6.7704   -0.7929    0.0000 C   0  0  1  0  0  0  0  0  0  0  0  0
   -7.6364   -1.2929    0.0000 C   0  0  0  0  0  0  0  0  0  0  0  0
   -6.7704    0.2073    0.0000 O   0  0  0  0  0  0  0  0  0  0  0  0
   -5.9044    0.7074    0.0000 C   0  0  1  0  0  0  0  0  0  0  0  0
   -5.0381    0.2073    0.0000 C   0  0  0  0  0  0  0  0  0  0  0  0
   -4.1719    0.7074    0.0000 C   0  0  2  0  0  0  0  0  0  0  0  0
   -3.3059    0.2073    0.0000 N   0  0  0  0  0  0  0  0  0  0  0  0
   -2.4397    0.7074    0.0000 C   0  0  0  0  0  0  0  0  0  0  0  0
   -2.4397    1.7074    0.0000 O   0  0  0  0  0  0  0  0  0  0  0  0
   -1.5734    0.2073    0.0000 C   0  0  0  0  0  0  0  0  0  0  0  0
   -0.7072    0.7074    0.0000 C   0  0  2  0  0  0  0  0  0  0  0  0
   -0.5766    1.6988    0.0000 O   0  0  0  0  0  0  0  0  0  0  0  0
    0.0000   -0.0000    0.0000 C   0  0  0  0  0  0  0  0  0  0  0  0
    0.6429    0.7660    0.0000 C   0  0  0  0  0  0  0  0  0  0  0  0
    0.8191   -0.5736    0.0000 C   0  0  0  0  0  0  0  0  0  0  0  0
   -0.5001   -0.8661    0.0000 C   0  0  0  0  0  0  0  0  0  0  0  0
   -0.0299   -1.7487    0.0000 O   0  0  0  0  0  0  0  0  0  0  0  0
   -1.5734   -0.7929    0.0000 C   0  0  2  0  0  0  0  0  0  0  0  0
   -1.7992    0.1813    0.0000 C   0  0  0  0  0  0  0  0  0  0  0  0
   -2.4397   -1.2930    0.0000 C   0  0  1  0  0  0  0  0  0  0  0  0
   -2.4397   -2.2930    0.0000 O   0  0  0  0  0  0  0  0  0  0  0  0
   -4.1718    1.7074    0.0000 C   0  0  0  0  0  0  0  0  0  0  0  0
   -5.0378    2.2074    0.0000 C   0  0  0  0  0  0  0  0  0  0  0  0
   -5.0378    3.2074    0.0000 C   0  0  0  0  0  0  0  0  0  0  0  0
   -5.8460    3.7964    0.0000 C   0  0  0  0  0  0  0  0  0  0  0  0
   -5.5414    4.7491    0.0000 S   0  0  0  0  0  0  0  0  0  0  0  0
   -4.5370    4.7500    0.0000 C   0  0  0  0  0  0  0  0  0  0  0  0
   -3.9491    5.5590    0.0000 C   0  0  0  0  0  0  0  0  0  0  0  0
   -4.2284    3.7971    0.0000 N   0  0  0  0  0  0  0  0  0  0  0  0
   -3.3058    2.2074    0.0000 C   0  0  0  0  0  0  0  0  0  0  0  0
   -5.9045    1.7074    0.0000 H   0  0  0  0  0  0  0  0  0  0  0  0
  2  1  1  6  0  0  0
  2 25  1  0  0  0  0
  2  3  1  0  0  0  0
  3  4  1  0  0  0  0
  4  5  1  0  0  0  0
  5  6  1  0  0  0  0
  6  9  1  0  0  0  0
  6  7  1  6  0  0  0
  6  8  1  0  0  0  0
  8  9  1  0  0  0  0
  9 10  1  0  0  0  0
 10 11  1  0  0  0  0
 11 12  1  0  0  0  0
 12 13  1  0  0  0  0
 13 14  2  0  0  0  0
 13 15  1  0  0  0  0
 15 16  1  0  0  0  0
 16 17  1  6  0  0  0
 16 18  1  0  0  0  0
 18 19  1  0  0  0  0
 18 20  1  0  0  0  0
 18 21  1  0  0  0  0
 21 22  2  0  0  0  0
 21 23  1  0  0  0  0
 23 24  1  1  0  0  0
 23 25  1  0  0  0  0
 25 26  1  1  0  0  0
 11 27  1  1  0  0  0
 27 28  2  0  0  0  0
 28 29  1  0  0  0  0
 29 34  1  0  0  0  0
 29 30  2  0  0  0  0
 30 31  1  0  0  0  0
 31 32  1  0  0  0  0
 32 33  1  0  0  0  0
 32 34  2  0  0  0  0
 27 35  1  0  0  0  0
  9 36  1  6  0  0  0
M  END
>  <Name>
Ixabepilone

>  <CAS #>
219989-84-1

>  <human Clearance (mL/min/kg)>
10.0

>  <Primary mechanism (metabolic, biliary or renal)>
metabolism

>  <seqId>
502.0

>  <Code (mechanism and clearance degree index)>
M1

>  < Five M1 and R1 test groups>
M1_2

>  <formamide>
0

>  <prodrug phosphates>
0

>  <VolSurf_V>
1063.62

>  <VolSurf_S>
672.569

>  <VolSurf_R>
1.58144

>  <VolSurf_G>
1.54202

>  <VolSurf_IW1>
0.0386375

>  <VolSurf_IW2>
0.1055

>  <VolSurf_IW3>
0.369249

>  <VolSurf_IW4>
0.746311

>  <VolSurf_ID1>
0.00854159

>  <VolSurf_ID2>
0.0579606

>  <VolSurf_ID3>
0.127465

>  <VolSurf_ID4>
0.18742

>  <VolSurf_HL1>
2.20267

>  <VolSurf_HL2>
2.0

>  <VolSurf_A>
4.02113

>  <VolSurf_CP>
0.968301

>  <VolSurf_POL>
54.225

>  <VolSurf_MW>
506.698

>  <VolSurf_FLEX>
0.407869

>  <VolSurf_FLEX_RB>
0.037079

>  <VolSurf_NCC>
0.0

>  <VolSurf_LOGP n-Oct>
3.867

>  <VolSurf_LOGP c-Hex>
-0.809

>  <VolSurf_PSA>
123.56

>  <VolSurf_HSA>
549.009

>  <VolSurf_PSAR>
0.183713

>  <VolSurf_PHSAR>
0.22506

>  <VolSurf_LgD5>
3.86457

>  <VolSurf_LgD6>
3.86676

>  <VolSurf_LgD7>
3.86698

>  <VolSurf_LgD7.5>
3.86699

>  <VolSurf_LgD8>
3.867

>  <VolSurf_LgD9>
3.867

>  <VolSurf_LgD10>
3.86699

>  <VolSurf_AUS7.4>
2.0

>  <VolSurf_%FU4>
94.6753

>  <VolSurf_%FU5>
99.4407

>  <VolSurf_%FU6>
99.9438

>  <VolSurf_%FU7>
99.9944

>  <VolSurf_%FU8>
99.9994

>  <VolSurf_%FU9>
99.9997

>  <VolSurf_%FU10>
99.9978

>  <ID>
248

>  <MOKAID>
249

>  <Clearance Route>
metabolic

>  <PC1>
4.3082199999999995

>  <PC2>
-2.3219

$$$$
Kanamycin
  -OEChem-08301611272D

 33 35  0     1  0  0  0  0  0999 V2000
    2.5995    1.4976    0.0000 N   0  0  0  0  0  0  0  0  0  0  0  0
    1.7350    2.0001    0.0000 C   0  0  0  0  0  0  0  0  0  0  0  0
    0.8675    1.5027    0.0000 C   0  0  1  0  0  0  0  0  0  0  0  0
   -0.0000    2.0104    0.0000 O   0  0  0  0  0  0  0  0  0  0  0  0
   -0.8675    1.5027    0.0000 C   0  0  2  0  0  0  0  0  0  0  0  0
   -1.7350    2.0001    0.0000 O   0  0  0  0  0  0  0  0  0  0  0  0
   -1.7379    3.0001    0.0000 C   0  0  2  0  0  0  0  0  0  0  0  0
   -0.8674    3.5027    0.0000 C   0  0  1  0  0  0  0  0  0  0  0  0
   -0.0007    3.0040    0.0000 N   0  0  0  0  0  0  0  0  0  0  0  0
   -0.8703    4.5028    0.0000 C   0  0  0  0  0  0  0  0  0  0  0  0
   -1.7349    5.0053    0.0000 C   0  0  1  0  0  0  0  0  0  0  0  0
   -1.7335    6.0053    0.0000 N   0  0  0  0  0  0  0  0  0  0  0  0
   -2.6054    4.5027    0.0000 C   0  0  2  0  0  0  0  0  0  0  0  0
   -3.4700    5.0052    0.0000 O   0  0  0  0  0  0  0  0  0  0  0  0
   -4.3375    4.5078    0.0000 C   0  0  1  0  0  0  0  0  0  0  0  0
   -4.3375    3.5027    0.0000 O   0  0  0  0  0  0  0  0  0  0  0  0
   -5.2138    3.0104    0.0000 C   0  0  2  0  0  0  0  0  0  0  0  0
   -5.2227    2.0104    0.0000 C   0  0  0  0  0  0  0  0  0  0  0  0
   -6.0931    1.5181    0.0000 O   0  0  0  0  0  0  0  0  0  0  0  0
   -6.0814    3.5181    0.0000 C   0  0  1  0  0  0  0  0  0  0  0  0
   -6.9511    3.0245    0.0000 O   0  0  0  0  0  0  0  0  0  0  0  0
   -6.0726    4.5181    0.0000 C   0  0  2  0  0  0  0  0  0  0  0  0
   -6.9356    5.0232    0.0000 N   0  0  0  0  0  0  0  0  0  0  0  0
   -5.2050    5.0155    0.0000 C   0  0  1  0  0  0  0  0  0  0  0  0
   -5.2006    6.0155    0.0000 O   0  0  0  0  0  0  0  0  0  0  0  0
   -2.6114    3.4976    0.0000 C   0  0  1  0  0  0  0  0  0  0  0  0
   -3.4774    2.9976    0.0000 O   0  0  0  0  0  0  0  0  0  0  0  0
   -0.8675    0.4975    0.0000 C   0  0  2  0  0  0  0  0  0  0  0  0
   -1.7328   -0.0038    0.0000 O   0  0  0  0  0  0  0  0  0  0  0  0
    0.0000    0.0000    0.0000 C   0  0  1  0  0  0  0  0  0  0  0  0
    0.0000   -1.0000    0.0000 O   0  0  0  0  0  0  0  0  0  0  0  0
    0.8675    0.4975    0.0000 C   0  0  2  0  0  0  0  0  0  0  0  0
    1.7328   -0.0038    0.0000 O   0  0  0  0  0  0  0  0  0  0  0  0
  1  2  1  0  0  0  0
  3  2  1  6  0  0  0
  3 32  1  0  0  0  0
  3  4  1  0  0  0  0
  4  5  1  0  0  0  0
  5  6  1  1  0  0  0
  7  6  1  1  0  0  0
  7 26  1  0  0  0  0
  7  8  1  0  0  0  0
  8  9  1  6  0  0  0
  8 10  1  0  0  0  0
 10 11  1  0  0  0  0
 11 12  1  6  0  0  0
 11 13  1  0  0  0  0
 13 14  1  1  0  0  0
 15 14  1  1  0  0  0
 15 24  1  0  0  0  0
 15 16  1  0  0  0  0
 16 17  1  0  0  0  0
 17 18  1  6  0  0  0
 18 19  1  0  0  0  0
 17 20  1  0  0  0  0
 20 21  1  1  0  0  0
 20 22  1  0  0  0  0
 22 23  1  6  0  0  0
 22 24  1  0  0  0  0
 24 25  1  1  0  0  0
 13 26  1  0  0  0  0
 26 27  1  6  0  0  0
  5 28  1  0  0  0  0
 28 29  1  1  0  0  0
 28 30  1  0  0  0  0
 30 31  1  6  0  0  0
 30 32  1  0  0  0  0
 32 33  1  1  0  0  0
M  END
>  <Name>
Kanamycin

>  <CAS #>
59-01-8

>  <human Clearance (mL/min/kg)>
1.4

>  <Primary mechanism (metabolic, biliary or renal)>
renal

>  <seqId>
503.0

>  <Code (mechanism and clearance degree index)>
R1

>  < Five M1 and R1 test groups>
R1_5

>  <formamide>
0

>  <prodrug phosphates>
0

>  <VolSurf_V>
864.75

>  <VolSurf_S>
590.654

>  <VolSurf_R>
1.46406

>  <VolSurf_G>
1.56093

>  <VolSurf_IW1>
0.0141071

>  <VolSurf_IW2>
0.019253

>  <VolSurf_IW3>
0.0722819

>  <VolSurf_IW4>
0.25653

>  <VolSurf_ID1>
0.0

>  <VolSurf_ID2>
0.0

>  <VolSurf_ID3>
0.0

>  <VolSurf_ID4>
0.0

>  <VolSurf_HL1>
786.5

>  <VolSurf_HL2>
421.5

>  <VolSurf_A>
0.0

>  <VolSurf_CP>
0.0

>  <VolSurf_POL>
45.816

>  <VolSurf_MW>
485.506

>  <VolSurf_FLEX>
2.22723

>  <VolSurf_FLEX_RB>
0.131014

>  <VolSurf_NCC>
1.0

>  <VolSurf_LOGP n-Oct>
-7.853

>  <VolSurf_LOGP c-Hex>
-9.0

>  <VolSurf_PSA>
304.4

>  <VolSurf_HSA>
286.254

>  <VolSurf_PSAR>
0.515361

>  <VolSurf_PHSAR>
1.06339

>  <VolSurf_LgD5>
-9.0

>  <VolSurf_LgD6>
-9.0

>  <VolSurf_LgD7>
-9.0

>  <VolSurf_LgD7.5>
-8.7963

>  <VolSurf_LgD8>
-8.24562

>  <VolSurf_LgD9>
-7.90034

>  <VolSurf_LgD10>
-7.85845

>  <VolSurf_AUS7.4>
0.933702

>  <VolSurf_%FU4>
9.99293E-11

>  <VolSurf_%FU5>
7.64077E-7

>  <VolSurf_%FU6>
0.00213435

>  <VolSurf_%FU7>
1.26592

>  <VolSurf_%FU8>
40.4337

>  <VolSurf_%FU9>
89.6591

>  <VolSurf_%FU10>
98.7516

>  <ID>
249

>  <MOKAID>
250

>  <Clearance Route>
renal

>  <PC1>
-10.0766

>  <PC2>
-0.5981390000000001

$$$$
Ketanserin
  -OEChem-08301611272D

 29 32  0     0  0  0  0  0  0999 V2000
    8.6752   -6.0084    0.0000 F   0  0  0  0  0  0  0  0  0  0  0  0
    8.6797   -5.0084    0.0000 C   0  0  0  0  0  0  0  0  0  0  0  0
    7.8099   -4.5045    0.0000 C   0  0  0  0  0  0  0  0  0  0  0  0
    7.8144   -3.5045    0.0000 C   0  0  0  0  0  0  0  0  0  0  0  0
    8.6797   -3.0033    0.0000 C   0  0  0  0  0  0  0  0  0  0  0  0
    9.5495   -3.5072    0.0000 C   0  0  0  0  0  0  0  0  0  0  0  0
    9.5539   -4.5123    0.0000 C   0  0  0  0  0  0  0  0  0  0  0  0
    8.6798   -2.0033    0.0000 C   0  0  0  0  0  0  0  0  0  0  0  0
    9.5459   -1.5033    0.0000 O   0  0  0  0  0  0  0  0  0  0  0  0
    7.8138   -1.5032    0.0000 C   0  0  0  0  0  0  0  0  0  0  0  0
    6.9492   -2.0057    0.0000 C   0  0  0  0  0  0  0  0  0  0  0  0
    6.0787   -1.5030    0.0000 C   0  0  0  0  0  0  0  0  0  0  0  0
    6.0728   -0.4979    0.0000 N   0  0  0  0  0  0  0  0  0  0  0  0
    5.2069    0.0022    0.0000 C   0  0  0  0  0  0  0  0  0  0  0  0
    4.3408   -0.4978    0.0000 C   0  0  0  0  0  0  0  0  0  0  0  0
    3.4748    0.0023    0.0000 N   0  0  0  0  0  0  0  0  0  0  0  0
    3.4735    1.0079    0.0000 C   0  0  0  0  0  0  0  0  0  0  0  0
    4.3394    1.5082    0.0000 O   0  0  0  0  0  0  0  0  0  0  0  0
    2.6012    1.5123    0.0000 N   0  0  0  0  0  0  0  0  0  0  0  0
    1.7358    1.0056    0.0000 C   0  0  0  0  0  0  0  0  0  0  0  0
    0.8679    1.5135    0.0000 C   0  0  0  0  0  0  0  0  0  0  0  0
    0.0000    1.0056    0.0000 C   0  0  0  0  0  0  0  0  0  0  0  0
    0.0000    0.0000    0.0000 C   0  0  0  0  0  0  0  0  0  0  0  0
    0.8679   -0.4977    0.0000 C   0  0  0  0  0  0  0  0  0  0  0  0
    1.7371    0.0000    0.0000 C   0  0  0  0  0  0  0  0  0  0  0  0
    2.6038   -0.4989    0.0000 C   0  0  0  0  0  0  0  0  0  0  0  0
    2.6037   -1.4989    0.0000 O   0  0  0  0  0  0  0  0  0  0  0  0
    6.9463   -0.0005    0.0000 C   0  0  0  0  0  0  0  0  0  0  0  0
    7.8168   -0.5032    0.0000 C   0  0  0  0  0  0  0  0  0  0  0  0
  1  2  1  0  0  0  0
  2  7  2  0  0  0  0
  2  3  1  0  0  0  0
  3  4  2  0  0  0  0
  4  5  1  0  0  0  0
  5  6  2  0  0  0  0
  6  7  1  0  0  0  0
  5  8  1  0  0  0  0
  8  9  2  0  0  0  0
  8 10  1  0  0  0  0
 10 29  1  0  0  0  0
 10 11  1  0  0  0  0
 11 12  1  0  0  0  0
 12 13  1  0  0  0  0
 13 14  1  0  0  0  0
 14 15  1  0  0  0  0
 15 16  1  0  0  0  0
 16 26  1  0  0  0  0
 16 17  1  0  0  0  0
 17 18  2  0  0  0  0
 17 19  1  0  0  0  0
 19 20  1  0  0  0  0
 20 25  2  0  0  0  0
 20 21  1  0  0  0  0
 21 22  2  0  0  0  0
 22 23  1  0  0  0  0
 23 24  2  0  0  0  0
 24 25  1  0  0  0  0
 25 26  1  0  0  0  0
 26 27  2  0  0  0  0
 13 28  1  0  0  0  0
 28 29  1  0  0  0  0
M  END
>  <Name>
Ketanserin

>  <CAS #>
74050-98-9

>  <human Clearance (mL/min/kg)>
6.7

>  <Primary mechanism (metabolic, biliary or renal)>
metabolism

>  <seqId>
505.0

>  <Code (mechanism and clearance degree index)>
M1

>  < Five M1 and R1 test groups>
M1_2

>  <formamide>
0

>  <prodrug phosphates>
0

>  <VolSurf_V>
848.75

>  <VolSurf_S>
576.672

>  <VolSurf_R>
1.47181

>  <VolSurf_G>
1.53422

>  <VolSurf_IW1>
0.0514239

>  <VolSurf_IW2>
0.138054

>  <VolSurf_IW3>
0.311274

>  <VolSurf_IW4>
0.664502

>  <VolSurf_ID1>
0.0501547

>  <VolSurf_ID2>
0.0678051

>  <VolSurf_ID3>
0.0917332

>  <VolSurf_ID4>
0.134477

>  <VolSurf_HL1>
1.97623

>  <VolSurf_HL2>
1.4645

>  <VolSurf_A>
2.93973

>  <VolSurf_CP>
1.29572

>  <VolSurf_POL>
42.418

>  <VolSurf_MW>
396.435

>  <VolSurf_FLEX>
2.69359

>  <VolSurf_FLEX_RB>
0.538718

>  <VolSurf_NCC>
1.0

>  <VolSurf_LOGP n-Oct>
3.463

>  <VolSurf_LOGP c-Hex>
2.657

>  <VolSurf_PSA>
83.06

>  <VolSurf_HSA>
493.612

>  <VolSurf_PSAR>
0.144033

>  <VolSurf_PHSAR>
0.16827

>  <VolSurf_LgD5>
0.645313

>  <VolSurf_LgD6>
1.54017

>  <VolSurf_LgD7>
2.48557

>  <VolSurf_LgD7.5>
2.89574

>  <VolSurf_LgD8>
3.19496

>  <VolSurf_LgD9>
3.41915

>  <VolSurf_LgD10>
3.37693

>  <VolSurf_AUS7.4>
1.37039

>  <VolSurf_%FU4>
0.0117335

>  <VolSurf_%FU5>
0.117211

>  <VolSurf_%FU6>
1.15988

>  <VolSurf_%FU7>
10.5022

>  <VolSurf_%FU8>
53.9296

>  <VolSurf_%FU9>
90.3922

>  <VolSurf_%FU10>
82.017

>  <ID>
250

>  <MOKAID>
251

>  <Clearance Route>
metabolic

>  <PC1>
2.59613

>  <PC2>
-1.40677

$$$$
Ketobemidone
  -OEChem-08301611272D

 18 19  0     0  0  0  0  0  0999 V2000
    2.7506   -1.9356    0.0000 C   0  0  0  0  0  0  0  0  0  0  0  0
    2.1086   -1.1690    0.0000 C   0  0  0  0  0  0  0  0  0  0  0  0
    1.1236   -1.3417    0.0000 C   0  0  0  0  0  0  0  0  0  0  0  0
    0.7807   -2.2810    0.0000 O   0  0  0  0  0  0  0  0  0  0  0  0
    0.0000    0.0000    0.0000 C   0  0  0  0  0  0  0  0  0  0  0  0
   -0.8675    0.4975    0.0000 C   0  0  0  0  0  0  0  0  0  0  0  0
   -0.8675    1.5027    0.0000 C   0  0  0  0  0  0  0  0  0  0  0  0
    0.0000    2.0104    0.0000 N   0  0  0  0  0  0  0  0  0  0  0  0
    0.0000    3.0104    0.0000 C   0  0  0  0  0  0  0  0  0  0  0  0
    0.8675    1.5027    0.0000 C   0  0  0  0  0  0  0  0  0  0  0  0
    0.8675    0.4975    0.0000 C   0  0  0  0  0  0  0  0  0  0  0  0
   -0.6420   -0.7667    0.0000 C   0  0  0  0  0  0  0  0  0  0  0  0
   -1.6316   -0.5902    0.0000 C   0  0  0  0  0  0  0  0  0  0  0  0
   -2.2737   -1.3568    0.0000 C   0  0  0  0  0  0  0  0  0  0  0  0
   -1.9363   -2.2982    0.0000 C   0  0  0  0  0  0  0  0  0  0  0  0
   -0.9467   -2.4747    0.0000 C   0  0  0  0  0  0  0  0  0  0  0  0
   -0.6093   -3.4161    0.0000 O   0  0  0  0  0  0  0  0  0  0  0  0
   -0.2946   -1.7098    0.0000 C   0  0  0  0  0  0  0  0  0  0  0  0
  1  2  1  0  0  0  0
  2  3  1  0  0  0  0
  3  4  2  0  0  0  0
  3  5  1  0  0  0  0
  5 11  1  0  0  0  0
  5  6  1  0  0  0  0
  6  7  1  0  0  0  0
  7  8  1  0  0  0  0
  8  9  1  0  0  0  0
  8 10  1  0  0  0  0
 10 11  1  0  0  0  0
  5 12  1  0  0  0  0
 12 18  2  0  0  0  0
 12 13  1  0  0  0  0
 13 14  2  0  0  0  0
 14 15  1  0  0  0  0
 15 16  2  0  0  0  0
 16 17  1  0  0  0  0
 16 18  1  0  0  0  0
M  END
>  <Name>
Ketobemidone

>  <CAS #>
469-79-4

>  <human Clearance (mL/min/kg)>
9.2

>  <Primary mechanism (metabolic, biliary or renal)>
metabolism

>  <seqId>
506.0

>  <Code (mechanism and clearance degree index)>
M1

>  < Five M1 and R1 test groups>
M1_5

>  <formamide>
0

>  <prodrug phosphates>
0

>  <VolSurf_V>
601.875

>  <VolSurf_S>
409.347

>  <VolSurf_R>
1.47033

>  <VolSurf_G>
1.29391

>  <VolSurf_IW1>
0.0898149

>  <VolSurf_IW2>
0.318671

>  <VolSurf_IW3>
0.690824

>  <VolSurf_IW4>
1.07709

>  <VolSurf_ID1>
0.0370934

>  <VolSurf_ID2>
0.107528

>  <VolSurf_ID3>
0.200862

>  <VolSurf_ID4>
0.256391

>  <VolSurf_HL1>
2.44022

>  <VolSurf_HL2>
2.28421

>  <VolSurf_A>
4.24682

>  <VolSurf_CP>
0.62958

>  <VolSurf_POL>
29.881

>  <VolSurf_MW>
248.341

>  <VolSurf_FLEX>
0.776326

>  <VolSurf_FLEX_RB>
0.129388

>  <VolSurf_NCC>
1.0

>  <VolSurf_LOGP n-Oct>
1.485

>  <VolSurf_LOGP c-Hex>
0.964

>  <VolSurf_PSA>
48.71

>  <VolSurf_HSA>
360.637

>  <VolSurf_PSAR>
0.118994

>  <VolSurf_PHSAR>
0.135067

>  <VolSurf_LgD5>
-1.58456

>  <VolSurf_LgD6>
-1.20466

>  <VolSurf_LgD7>
-0.374952

>  <VolSurf_LgD7.5>
0.097476

>  <VolSurf_LgD8>
0.55548

>  <VolSurf_LgD9>
1.1749

>  <VolSurf_LgD10>
0.937079

>  <VolSurf_AUS7.4>
0.593712

>  <VolSurf_%FU4>
0.00132656

>  <VolSurf_%FU5>
0.013264

>  <VolSurf_%FU6>
0.132482

>  <VolSurf_%FU7>
1.30915

>  <VolSurf_%FU8>
11.6643

>  <VolSurf_%FU9>
47.5381

>  <VolSurf_%FU10>
21.8678

>  <ID>
251

>  <MOKAID>
252

>  <Clearance Route>
uncertain

>  <PC1>
0.67598

>  <PC2>
1.42606

$$$$
Labetalol
  -OEChem-08301611272D

 24 25  0     1  0  0  0  0  0999 V2000
    3.4700    2.9950    0.0000 C   0  0  0  0  0  0  0  0  0  0  0  0
    2.6054    3.4976    0.0000 C   0  0  3  0  0  0  0  0  0  0  0  0
    1.7379    3.0001    0.0000 C   0  0  0  0  0  0  0  0  0  0  0  0
    1.7350    2.0001    0.0000 C   0  0  0  0  0  0  0  0  0  0  0  0
    0.8675    1.5027    0.0000 C   0  0  0  0  0  0  0  0  0  0  0  0
    0.8675    0.4975    0.0000 C   0  0  0  0  0  0  0  0  0  0  0  0
    0.0000    0.0000    0.0000 C   0  0  0  0  0  0  0  0  0  0  0  0
   -0.8675    0.4975    0.0000 C   0  0  0  0  0  0  0  0  0  0  0  0
   -0.8675    1.5027    0.0000 C   0  0  0  0  0  0  0  0  0  0  0  0
    0.0000    2.0104    0.0000 C   0  0  0  0  0  0  0  0  0  0  0  0
    2.6084    4.4976    0.0000 N   0  0  0  0  0  0  0  0  0  0  0  0
    3.4759    4.9950    0.0000 C   0  0  0  0  0  0  0  0  0  0  0  0
    3.4788    5.9950    0.0000 C   0  0  3  0  0  0  0  0  0  0  0  0
    2.6143    6.4976    0.0000 O   0  0  0  0  0  0  0  0  0  0  0  0
    4.3463    6.4925    0.0000 C   0  0  0  0  0  0  0  0  0  0  0  0
    5.2139    5.9847    0.0000 C   0  0  0  0  0  0  0  0  0  0  0  0
    6.0814    6.4821    0.0000 C   0  0  0  0  0  0  0  0  0  0  0  0
    6.0902    7.4821    0.0000 C   0  0  0  0  0  0  0  0  0  0  0  0
    6.9599    7.9758    0.0000 O   0  0  0  0  0  0  0  0  0  0  0  0
    5.2227    7.9899    0.0000 C   0  0  0  0  0  0  0  0  0  0  0  0
    4.3463    7.4976    0.0000 C   0  0  0  0  0  0  0  0  0  0  0  0
    5.2315    8.9898    0.0000 C   0  0  0  0  0  0  0  0  0  0  0  0
    6.1020    9.4821    0.0000 O   0  0  0  0  0  0  0  0  0  0  0  0
    4.3700    9.4975    0.0000 N   0  0  0  0  0  0  0  0  0  0  0  0
  1  2  1  0  0  0  0
  2  3  1  0  0  0  0
  3  4  1  0  0  0  0
  4  5  1  0  0  0  0
  5 10  2  0  0  0  0
  5  6  1  0  0  0  0
  6  7  2  0  0  0  0
  7  8  1  0  0  0  0
  8  9  2  0  0  0  0
  9 10  1  0  0  0  0
  2 11  1  0  0  0  0
 11 12  1  0  0  0  0
 12 13  1  0  0  0  0
 13 14  1  0  0  0  0
 13 15  1  0  0  0  0
 15 21  2  0  0  0  0
 15 16  1  0  0  0  0
 16 17  2  0  0  0  0
 17 18  1  0  0  0  0
 18 19  1  0  0  0  0
 18 20  2  0  0  0  0
 20 21  1  0  0  0  0
 20 22  1  0  0  0  0
 22 23  2  0  0  0  0
 22 24  1  0  0  0  0
M  END
>  <Name>
Labetalol

>  <CAS #>
36894-69-6

>  <human Clearance (mL/min/kg)>
23.0

>  <Primary mechanism (metabolic, biliary or renal)>
metabolism

>  <seqId>
513.0

>  <Code (mechanism and clearance degree index)>
M1

>  < Five M1 and R1 test groups>
M1_5

>  <formamide>
0

>  <prodrug phosphates>
0

>  <VolSurf_V>
778.375

>  <VolSurf_S>
537.198

>  <VolSurf_R>
1.44895

>  <VolSurf_G>
1.50413

>  <VolSurf_IW1>
0.137929

>  <VolSurf_IW2>
0.430624

>  <VolSurf_IW3>
0.865274

>  <VolSurf_IW4>
1.07269

>  <VolSurf_ID1>
0.0710536

>  <VolSurf_ID2>
0.0701965

>  <VolSurf_ID3>
0.0795666

>  <VolSurf_ID4>
0.123611

>  <VolSurf_HL1>
2.07416

>  <VolSurf_HL2>
1.96983

>  <VolSurf_A>
6.48314

>  <VolSurf_CP>
1.08674

>  <VolSurf_POL>
39.759

>  <VolSurf_MW>
329.413

>  <VolSurf_FLEX>
2.97265

>  <VolSurf_FLEX_RB>
0.247721

>  <VolSurf_NCC>
1.0

>  <VolSurf_LOGP n-Oct>
1.801

>  <VolSurf_LOGP c-Hex>
-0.0829998

>  <VolSurf_PSA>
107.13

>  <VolSurf_HSA>
430.068

>  <VolSurf_PSAR>
0.199424

>  <VolSurf_PHSAR>
0.2491

>  <VolSurf_LgD5>
-1.1497

>  <VolSurf_LgD6>
-0.299074

>  <VolSurf_LgD7>
0.65398

>  <VolSurf_LgD7.5>
1.08662

>  <VolSurf_LgD8>
1.40742

>  <VolSurf_LgD9>
1.35202

>  <VolSurf_LgD10>
0.578564

>  <VolSurf_AUS7.4>
1.22276

>  <VolSurf_%FU4>
0.00764565

>  <VolSurf_%FU5>
0.0764039

>  <VolSurf_%FU6>
0.758812

>  <VolSurf_%FU7>
7.09452

>  <VolSurf_%FU8>
40.3503

>  <VolSurf_%FU9>
35.2618

>  <VolSurf_%FU10>
5.52026

>  <ID>
252

>  <MOKAID>
253

>  <Clearance Route>
metabolic

>  <PC1>
0.80733

>  <PC2>
0.684664

$$$$
Lamifiban
  -OEChem-08301611272D

 34 36  0     1  0  0  0  0  0999 V2000
    0.8725    9.5117    0.0000 N   0  0  0  0  0  0  0  0  0  0  0  0
    0.0043    9.0155    0.0000 C   0  0  0  0  0  0  0  0  0  0  0  0
   -0.8595    9.5194    0.0000 N   0  0  0  0  0  0  0  0  0  0  0  0
   -0.0001    8.0156    0.0000 C   0  0  0  0  0  0  0  0  0  0  0  0
    0.8697    7.5117    0.0000 C   0  0  0  0  0  0  0  0  0  0  0  0
    0.8653    6.5117    0.0000 C   0  0  0  0  0  0  0  0  0  0  0  0
   -0.0000    6.0104    0.0000 C   0  0  0  0  0  0  0  0  0  0  0  0
   -0.8698    6.5143    0.0000 C   0  0  0  0  0  0  0  0  0  0  0  0
   -0.8743    7.5194    0.0000 C   0  0  0  0  0  0  0  0  0  0  0  0
   -0.0000    5.0104    0.0000 C   0  0  0  0  0  0  0  0  0  0  0  0
   -0.8660    4.5104    0.0000 O   0  0  0  0  0  0  0  0  0  0  0  0
    0.8660    4.5104    0.0000 N   0  0  0  0  0  0  0  0  0  0  0  0
    0.8660    3.5104    0.0000 C   0  0  1  0  0  0  0  0  0  0  0  0
    1.7321    3.0104    0.0000 C   0  0  0  0  0  0  0  0  0  0  0  0
    2.5981    3.5104    0.0000 C   0  0  0  0  0  0  0  0  0  0  0  0
    2.5951    4.5156    0.0000 C   0  0  0  0  0  0  0  0  0  0  0  0
    3.4611    5.0157    0.0000 C   0  0  0  0  0  0  0  0  0  0  0  0
    4.3301    4.5207    0.0000 C   0  0  0  0  0  0  0  0  0  0  0  0
    5.1939    5.0245    0.0000 O   0  0  0  0  0  0  0  0  0  0  0  0
    4.3331    3.5155    0.0000 C   0  0  0  0  0  0  0  0  0  0  0  0
    3.4671    3.0053    0.0000 C   0  0  0  0  0  0  0  0  0  0  0  0
   -0.0000    3.0104    0.0000 C   0  0  0  0  0  0  0  0  0  0  0  0
   -0.8660    3.5104    0.0000 O   0  0  0  0  0  0  0  0  0  0  0  0
   -0.0000    2.0104    0.0000 N   0  0  0  0  0  0  0  0  0  0  0  0
   -0.8675    1.5027    0.0000 C   0  0  0  0  0  0  0  0  0  0  0  0
   -0.8675    0.4975    0.0000 C   0  0  0  0  0  0  0  0  0  0  0  0
    0.0000    0.0000    0.0000 C   0  0  0  0  0  0  0  0  0  0  0  0
    0.8675    0.4975    0.0000 C   0  0  0  0  0  0  0  0  0  0  0  0
    0.8675    1.5027    0.0000 C   0  0  0  0  0  0  0  0  0  0  0  0
    0.0000   -1.0000    0.0000 O   0  0  0  0  0  0  0  0  0  0  0  0
    0.8660   -1.5000    0.0000 C   0  0  0  0  0  0  0  0  0  0  0  0
    0.8660   -2.5000    0.0000 C   0  0  0  0  0  0  0  0  0  0  0  0
    0.0000   -3.0000    0.0000 O   0  0  0  0  0  0  0  0  0  0  0  0
    1.7321   -3.0000    0.0000 O   0  0  0  0  0  0  0  0  0  0  0  0
  1  2  1  0  0  0  0
  2  3  2  3  0  0  0
  2  4  1  0  0  0  0
  4  9  2  0  0  0  0
  4  5  1  0  0  0  0
  5  6  2  0  0  0  0
  6  7  1  0  0  0  0
  7  8  2  0  0  0  0
  8  9  1  0  0  0  0
  7 10  1  0  0  0  0
 10 11  2  0  0  0  0
 10 12  1  0  0  0  0
 12 13  1  0  0  0  0
 13 14  1  1  0  0  0
 14 15  1  0  0  0  0
 15 21  2  0  0  0  0
 15 16  1  0  0  0  0
 16 17  2  0  0  0  0
 17 18  1  0  0  0  0
 18 19  1  0  0  0  0
 18 20  2  0  0  0  0
 20 21  1  0  0  0  0
 13 22  1  0  0  0  0
 22 23  2  0  0  0  0
 22 24  1  0  0  0  0
 24 29  1  0  0  0  0
 24 25  1  0  0  0  0
 25 26  1  0  0  0  0
 26 27  1  0  0  0  0
 27 28  1  0  0  0  0
 28 29  1  0  0  0  0
 27 30  1  0  0  0  0
 30 31  1  0  0  0  0
 31 32  1  0  0  0  0
 32 33  2  0  0  0  0
 32 34  1  0  0  0  0
M  END
>  <Name>
Lamifiban

>  <CAS #>
144412-49-7

>  <human Clearance (mL/min/kg)>
1.9

>  <Primary mechanism (metabolic, biliary or renal)>
renal

>  <seqId>
514.0

>  <Code (mechanism and clearance degree index)>
R1

>  < Five M1 and R1 test groups>
R1_5

>  <formamide>
0

>  <prodrug phosphates>
0

>  <VolSurf_V>
993.25

>  <VolSurf_S>
678.056

>  <VolSurf_R>
1.46485

>  <VolSurf_G>
1.67153

>  <VolSurf_IW1>
0.011643

>  <VolSurf_IW2>
0.0558434

>  <VolSurf_IW3>
0.195715

>  <VolSurf_IW4>
0.3329

>  <VolSurf_ID1>
0.0387525

>  <VolSurf_ID2>
0.0724715

>  <VolSurf_ID3>
0.0939935

>  <VolSurf_ID4>
0.0726804

>  <VolSurf_HL1>
3.11737

>  <VolSurf_HL2>
2.52091

>  <VolSurf_A>
3.58561

>  <VolSurf_CP>
0.65672

>  <VolSurf_POL>
47.68

>  <VolSurf_MW>
468.502

>  <VolSurf_FLEX>
3.0413

>  <VolSurf_FLEX_RB>
0.253441

>  <VolSurf_NCC>
2.0

>  <VolSurf_LOGP n-Oct>
0.933

>  <VolSurf_LOGP c-Hex>
-3.184

>  <VolSurf_PSA>
180.1

>  <VolSurf_HSA>
497.956

>  <VolSurf_PSAR>
0.265612

>  <VolSurf_PHSAR>
0.361678

>  <VolSurf_LgD5>
-0.305889

>  <VolSurf_LgD6>
-0.299946

>  <VolSurf_LgD7>
-0.30158

>  <VolSurf_LgD7.5>
-0.306916

>  <VolSurf_LgD8>
-0.323502

>  <VolSurf_LgD9>
-0.498316

>  <VolSurf_LgD10>
-1.14594

>  <VolSurf_AUS7.4>
0.0

>  <VolSurf_%FU4>
0.0

>  <VolSurf_%FU5>
0.0

>  <VolSurf_%FU6>
0.0

>  <VolSurf_%FU7>
0.0

>  <VolSurf_%FU8>
0.0

>  <VolSurf_%FU9>
0.0

>  <VolSurf_%FU10>
0.0

>  <ID>
253

>  <MOKAID>
254

>  <Clearance Route>
possible billary

>  <PC1>
-1.7030599999999998

>  <PC2>
-2.17408

$$$$
Lamivudine
  -OEChem-08301611272D

 15 16  0     1  0  0  0  0  0999 V2000
    0.8675   -1.4975    0.0000 N   0  0  0  0  0  0  0  0  0  0  0  0
    0.8675   -0.4975    0.0000 C   0  0  0  0  0  0  0  0  0  0  0  0
    1.7350    0.0000    0.0000 N   0  0  0  0  0  0  0  0  0  0  0  0
    1.7350    1.0052    0.0000 C   0  0  0  0  0  0  0  0  0  0  0  0
    2.6025    1.5026    0.0000 O   0  0  0  0  0  0  0  0  0  0  0  0
    0.8675    1.5129    0.0000 N   0  0  0  0  0  0  0  0  0  0  0  0
    0.0000    1.0052    0.0000 C   0  0  0  0  0  0  0  0  0  0  0  0
    0.0000    0.0000    0.0000 C   0  0  0  0  0  0  0  0  0  0  0  0
    0.8675    2.5129    0.0000 C   0  0  2  0  0  0  0  0  0  0  0  0
    1.6783    3.0982    0.0000 C   0  0  0  0  0  0  0  0  0  0  0  0
    1.3692    4.0507    0.0000 S   0  0  0  0  0  0  0  0  0  0  0  0
    0.3676    4.0534    0.0000 C   0  0  2  0  0  0  0  0  0  0  0  0
   -0.2188    4.8634    0.0000 C   0  0  0  0  0  0  0  0  0  0  0  0
   -1.2135    4.7606    0.0000 O   0  0  0  0  0  0  0  0  0  0  0  0
    0.0565    3.0984    0.0000 O   0  0  0  0  0  0  0  0  0  0  0  0
  1  2  1  0  0  0  0
  2  8  1  0  0  0  0
  2  3  2  0  0  0  0
  3  4  1  0  0  0  0
  4  5  2  0  0  0  0
  4  6  1  0  0  0  0
  6  7  1  0  0  0  0
  7  8  2  0  0  0  0
  9  6  1  1  0  0  0
  9 15  1  0  0  0  0
  9 10  1  0  0  0  0
 10 11  1  0  0  0  0
 11 12  1  0  0  0  0
 12 13  1  1  0  0  0
 13 14  1  0  0  0  0
 12 15  1  0  0  0  0
M  END
>  <Name>
Lamivudine

>  <CAS #>
134678-17-4

>  <human Clearance (mL/min/kg)>
4.8

>  <Primary mechanism (metabolic, biliary or renal)>
renal

>  <seqId>
515.0

>  <Code (mechanism and clearance degree index)>
R1

>  < Five M1 and R1 test groups>
R1_1

>  <formamide>
0

>  <prodrug phosphates>
0

>  <VolSurf_V>
461.0

>  <VolSurf_S>
339.502

>  <VolSurf_R>
1.35787

>  <VolSurf_G>
1.27596

>  <VolSurf_IW1>
0.0748742

>  <VolSurf_IW2>
0.158741

>  <VolSurf_IW3>
0.424051

>  <VolSurf_IW4>
0.935936

>  <VolSurf_ID1>
0.109176

>  <VolSurf_ID2>
0.215591

>  <VolSurf_ID3>
0.28652

>  <VolSurf_ID4>
0.36142

>  <VolSurf_HL1>
5.65497

>  <VolSurf_HL2>
4.28571

>  <VolSurf_A>
3.0513

>  <VolSurf_CP>
0.264833

>  <VolSurf_POL>
21.371

>  <VolSurf_MW>
229.256

>  <VolSurf_FLEX>
0.420192

>  <VolSurf_FLEX_RB>
0.105048

>  <VolSurf_NCC>
0.0

>  <VolSurf_LOGP n-Oct>
-1.035

>  <VolSurf_LOGP c-Hex>
-3.629

>  <VolSurf_PSA>
103.26

>  <VolSurf_HSA>
236.242

>  <VolSurf_PSAR>
0.304151

>  <VolSurf_PHSAR>
0.437093

>  <VolSurf_LgD5>
-1.08534

>  <VolSurf_LgD6>
-1.04031

>  <VolSurf_LgD7>
-1.03553

>  <VolSurf_LgD7.5>
-1.03517

>  <VolSurf_LgD8>
-1.03506

>  <VolSurf_LgD9>
-1.03503

>  <VolSurf_LgD10>
-1.03525

>  <VolSurf_AUS7.4>
2.0

>  <VolSurf_%FU4>
44.8538

>  <VolSurf_%FU5>
89.0514

>  <VolSurf_%FU6>
98.7855

>  <VolSurf_%FU7>
99.8772

>  <VolSurf_%FU8>
99.9871

>  <VolSurf_%FU9>
99.9931

>  <VolSurf_%FU10>
99.9429

>  <ID>
254

>  <MOKAID>
255

>  <Clearance Route>
uncertain

>  <PC1>
0.356697

>  <PC2>
3.81035

$$$$
Laromustine
  -OEChem-08301611272D

 17 16  0     1  0  0  0  0  0999 V2000
    0.0000    0.0000    0.0000 C   0  0  0  0  0  0  0  0  0  0  0  0
    1.0000    0.0000    0.0000 S   0  0  0  0  0  0  0  0  0  0  0  0
    1.0000    1.0000    0.0000 O   0  0  0  0  0  0  0  0  0  0  0  0
    1.0000   -1.0000    0.0000 O   0  0  0  0  0  0  0  0  0  0  0  0
    2.0000   -0.0000    0.0000 N   0  0  1  0  0  0  0  0  0  0  0  0
    2.5000    0.8660    0.0000 N   0  0  0  0  0  0  0  0  0  0  0  0
    3.5000    0.8660    0.0000 S   0  0  0  0  0  0  0  0  0  0  0  0
    3.5000   -0.1340    0.0000 O   0  0  0  0  0  0  0  0  0  0  0  0
    3.5000    1.8660    0.0000 O   0  0  0  0  0  0  0  0  0  0  0  0
    4.5000    0.8660    0.0000 C   0  0  0  0  0  0  0  0  0  0  0  0
    2.0000    1.7321    0.0000 C   0  0  0  0  0  0  0  0  0  0  0  0
    1.0000    1.7321    0.0000 O   0  0  0  0  0  0  0  0  0  0  0  0
    2.5000    2.5981    0.0000 N   0  0  0  0  0  0  0  0  0  0  0  0
    2.0000    3.4641    0.0000 C   0  0  0  0  0  0  0  0  0  0  0  0
    2.5000   -0.8660    0.0000 C   0  0  0  0  0  0  0  0  0  0  0  0
    2.0000   -1.7321    0.0000 C   0  0  0  0  0  0  0  0  0  0  0  0
    2.5000   -2.5981    0.0000 Cl  0  0  0  0  0  0  0  0  0  0  0  0
  1  2  1  0  0  0  0
  2  3  2  0  0  0  0
  2  4  2  0  0  0  0
  2  5  1  0  0  0  0
  5  6  1  0  0  0  0
  6  7  1  0  0  0  0
  7  8  2  0  0  0  0
  7  9  2  0  0  0  0
  7 10  1  0  0  0  0
  6 11  1  0  0  0  0
 11 12  2  0  0  0  0
 11 13  1  0  0  0  0
 13 14  1  0  0  0  0
  5 15  1  1  0  0  0
 15 16  1  0  0  0  0
 16 17  1  0  0  0  0
M  END
>  <Name>
Laromustine

>  <CAS #>
173424-77-6

>  <human Clearance (mL/min/kg)>
23.1

>  <Primary mechanism (metabolic, biliary or renal)>
metabolic

>  <seqId>
519.0

>  <Code (mechanism and clearance degree index)>
M1

>  < Five M1 and R1 test groups>
M1_2

>  <formamide>
0

>  <prodrug phosphates>
0

>  <VolSurf_V>
582.375

>  <VolSurf_S>
400.433

>  <VolSurf_R>
1.45436

>  <VolSurf_G>
1.2938

>  <VolSurf_IW1>
0.0367682

>  <VolSurf_IW2>
0.0814456

>  <VolSurf_IW3>
0.0572834

>  <VolSurf_IW4>
1.30464

>  <VolSurf_ID1>
0.0646356

>  <VolSurf_ID2>
0.123272

>  <VolSurf_ID3>
0.224552

>  <VolSurf_ID4>
0.41955

>  <VolSurf_HL1>
6.95789

>  <VolSurf_HL2>
4.64706

>  <VolSurf_A>
2.71225

>  <VolSurf_CP>
0.211288

>  <VolSurf_POL>
26.486

>  <VolSurf_MW>
307.775

>  <VolSurf_FLEX>
1.72813

>  <VolSurf_FLEX_RB>
0.192015

>  <VolSurf_NCC>
0.0

>  <VolSurf_LOGP n-Oct>
-1.393

>  <VolSurf_LOGP c-Hex>
-4.853

>  <VolSurf_PSA>
119.445

>  <VolSurf_HSA>
280.988

>  <VolSurf_PSAR>
0.298289

>  <VolSurf_PHSAR>
0.425089

>  <VolSurf_LgD5>
-1.393

>  <VolSurf_LgD6>
-1.393

>  <VolSurf_LgD7>
-1.393

>  <VolSurf_LgD7.5>
-1.393

>  <VolSurf_LgD8>
-1.393

>  <VolSurf_LgD9>
-1.393

>  <VolSurf_LgD10>
-1.39301

>  <VolSurf_AUS7.4>
2.0

>  <VolSurf_%FU4>
100.0

>  <VolSurf_%FU5>
100.0

>  <VolSurf_%FU6>
100.0

>  <VolSurf_%FU7>
100.0

>  <VolSurf_%FU8>
100.0

>  <VolSurf_%FU9>
99.9998

>  <VolSurf_%FU10>
99.9981

>  <ID>
255

>  <MOKAID>
256

>  <Clearance Route>
uncertain

>  <PC1>
0.161206

>  <PC2>
2.01035

$$$$
Latanoprost
  -OEChem-08301611272D

 31 32  0     1  0  0  0  0  0999 V2000
    5.4234   -0.1808    0.0000 C   0  0  0  0  0  0  0  0  0  0  0  0
    6.1666    0.4882    0.0000 C   0  0  2  0  0  0  0  0  0  0  0  0
    6.0636    1.4874    0.0000 C   0  0  2  0  0  0  0  0  0  0  0  0
    6.9803    1.8912    0.0000 C   0  0  2  0  0  0  0  0  0  0  0  0
    7.1909    2.8688    0.0000 O   0  0  0  0  0  0  0  0  0  0  0  0
    7.6491    1.1459    0.0000 C   0  0  0  0  0  0  0  0  0  0  0  0
    7.1454    0.2820    0.0000 C   0  0  2  0  0  0  0  0  0  0  0  0
    7.5510   -0.6320    0.0000 O   0  0  0  0  0  0  0  0  0  0  0  0
    5.1991    1.9899    0.0000 C   0  0  0  0  0  0  0  0  0  0  0  0
    4.3316    1.4925    0.0000 C   0  0  0  0  0  0  0  0  0  0  0  0
    3.4670    1.9950    0.0000 C   0  0  2  0  0  0  0  0  0  0  0  0
    2.5995    1.4976    0.0000 C   0  0  0  0  0  0  0  0  0  0  0  0
    1.7350    2.0001    0.0000 C   0  0  0  0  0  0  0  0  0  0  0  0
    0.8675    1.5027    0.0000 C   0  0  0  0  0  0  0  0  0  0  0  0
    0.8675    0.4975    0.0000 C   0  0  0  0  0  0  0  0  0  0  0  0
    0.0000    0.0000    0.0000 C   0  0  0  0  0  0  0  0  0  0  0  0
   -0.8675    0.4975    0.0000 C   0  0  0  0  0  0  0  0  0  0  0  0
   -0.8675    1.5027    0.0000 C   0  0  0  0  0  0  0  0  0  0  0  0
    0.0000    2.0104    0.0000 C   0  0  0  0  0  0  0  0  0  0  0  0
    3.4700    2.9950    0.0000 O   0  0  0  0  0  0  0  0  0  0  0  0
    5.6312   -1.1590    0.0000 C   0  0  0  0  0  0  0  0  0  0  0  0
    4.8880   -1.8281    0.0000 C   0  0  0  0  0  0  0  0  0  0  0  0
    5.0959   -2.8062    0.0000 C   0  0  0  0  0  0  0  0  0  0  0  0
    4.3526   -3.4753    0.0000 C   0  0  0  0  0  0  0  0  0  0  0  0
    4.5605   -4.4535    0.0000 C   0  0  0  0  0  0  0  0  0  0  0  0
    3.8173   -5.1225    0.0000 C   0  0  0  0  0  0  0  0  0  0  0  0
    4.0251   -6.1007    0.0000 O   0  0  0  0  0  0  0  0  0  0  0  0
    3.2819   -6.7698    0.0000 C   0  0  0  0  0  0  0  0  0  0  0  0
    3.4897   -7.7479    0.0000 C   0  0  0  0  0  0  0  0  0  0  0  0
    2.3308   -6.4607    0.0000 C   0  0  0  0  0  0  0  0  0  0  0  0
    2.8662   -4.8134    0.0000 O   0  0  0  0  0  0  0  0  0  0  0  0
  2  1  1  6  0  0  0
  2  7  1  0  0  0  0
  2  3  1  0  0  0  0
  3  4  1  0  0  0  0
  4  5  1  6  0  0  0
  4  6  1  0  0  0  0
  6  7  1  0  0  0  0
  7  8  1  6  0  0  0
  3  9  1  1  0  0  0
  9 10  1  0  0  0  0
 10 11  1  0  0  0  0
 11 12  1  0  0  0  0
 12 13  1  0  0  0  0
 13 14  1  0  0  0  0
 14 19  2  0  0  0  0
 14 15  1  0  0  0  0
 15 16  2  0  0  0  0
 16 17  1  0  0  0  0
 17 18  2  0  0  0  0
 18 19  1  0  0  0  0
 11 20  1  6  0  0  0
  1 21  1  0  0  0  0
 21 22  2  0  0  0  0
 22 23  1  0  0  0  0
 23 24  1  0  0  0  0
 24 25  1  0  0  0  0
 25 26  1  0  0  0  0
 26 27  1  0  0  0  0
 27 28  1  0  0  0  0
 28 29  1  0  0  0  0
 28 30  1  0  0  0  0
 26 31  2  0  0  0  0
M  END
>  <Name>
Latanoprost

>  <CAS #>
130209-82-4

>  <human Clearance (mL/min/kg)>
6.7

>  <Primary mechanism (metabolic, biliary or renal)>
metabolic

>  <seqId>
521.0

>  <Code (mechanism and clearance degree index)>
M1

>  < Five M1 and R1 test groups>
M1_3

>  <formamide>
0

>  <prodrug phosphates>
0

>  <VolSurf_V>
1075.88

>  <VolSurf_S>
752.519

>  <VolSurf_R>
1.4297

>  <VolSurf_G>
1.80421

>  <VolSurf_IW1>
0.0736684

>  <VolSurf_IW2>
0.203058

>  <VolSurf_IW3>
0.441199

>  <VolSurf_IW4>
0.526097

>  <VolSurf_ID1>
0.0502164

>  <VolSurf_ID2>
0.0883967

>  <VolSurf_ID3>
0.238552

>  <VolSurf_ID4>
0.327358

>  <VolSurf_HL1>
3.09596

>  <VolSurf_HL2>
4.12821

>  <VolSurf_A>
5.37207

>  <VolSurf_CP>
0.431074

>  <VolSurf_POL>
48.802

>  <VolSurf_MW>
432.593

>  <VolSurf_FLEX>
4.35552

>  <VolSurf_FLEX_RB>
0.229238

>  <VolSurf_NCC>
0.0

>  <VolSurf_LOGP n-Oct>
5.161

>  <VolSurf_LOGP c-Hex>
0.22

>  <VolSurf_PSA>
86.99

>  <VolSurf_HSA>
665.529

>  <VolSurf_PSAR>
0.115598

>  <VolSurf_PHSAR>
0.130708

>  <VolSurf_LgD5>
5.161

>  <VolSurf_LgD6>
5.161

>  <VolSurf_LgD7>
5.161

>  <VolSurf_LgD7.5>
5.161

>  <VolSurf_LgD8>
5.161

>  <VolSurf_LgD9>
5.161

>  <VolSurf_LgD10>
5.16099

>  <VolSurf_AUS7.4>
2.0

>  <VolSurf_%FU4>
100.0

>  <VolSurf_%FU5>
100.0

>  <VolSurf_%FU6>
100.0

>  <VolSurf_%FU7>
100.0

>  <VolSurf_%FU8>
100.0

>  <VolSurf_%FU9>
99.9999

>  <VolSurf_%FU10>
99.9988

>  <ID>
256

>  <MOKAID>
257

>  <Clearance Route>
metabolic

>  <PC1>
5.24595

>  <PC2>
-2.51552

$$$$
Letrozole
  -OEChem-08301611272D

 22 24  0     0  0  0  0  0  0999 V2000
   -3.5283    4.0943    0.0000 N   0  0  0  0  0  0  0  0  0  0  0  0
   -2.6637    3.5918    0.0000 C   0  0  0  0  0  0  0  0  0  0  0  0
   -1.7991    3.0893    0.0000 C   0  0  0  0  0  0  0  0  0  0  0  0
   -0.9286    3.5920    0.0000 C   0  0  0  0  0  0  0  0  0  0  0  0
   -0.0640    3.0895    0.0000 C   0  0  0  0  0  0  0  0  0  0  0  0
   -0.0610    2.0895    0.0000 C   0  0  0  0  0  0  0  0  0  0  0  0
   -0.9315    1.5868    0.0000 C   0  0  0  0  0  0  0  0  0  0  0  0
   -1.8050    2.0842    0.0000 C   0  0  0  0  0  0  0  0  0  0  0  0
    0.8058    1.5908    0.0000 C   0  0  0  0  0  0  0  0  0  0  0  0
    1.6710    2.0921    0.0000 C   0  0  0  0  0  0  0  0  0  0  0  0
    1.6665    3.0973    0.0000 C   0  0  0  0  0  0  0  0  0  0  0  0
    2.5318    3.5987    0.0000 C   0  0  0  0  0  0  0  0  0  0  0  0
    3.4015    3.1051    0.0000 C   0  0  0  0  0  0  0  0  0  0  0  0
    3.4060    2.0999    0.0000 C   0  0  0  0  0  0  0  0  0  0  0  0
    2.5408    1.5883    0.0000 C   0  0  0  0  0  0  0  0  0  0  0  0
    4.2646    3.6102    0.0000 C   0  0  0  0  0  0  0  0  0  0  0  0
    5.1276    4.1153    0.0000 N   0  0  0  0  0  0  0  0  0  0  0  0
    0.8073    0.5908    0.0000 N   0  0  0  0  0  0  0  0  0  0  0  0
    0.0000    0.0000    0.0000 C   0  0  0  0  0  0  0  0  0  0  0  0
    0.3065   -0.9518    0.0000 N   0  0  0  0  0  0  0  0  0  0  0  0
    1.3080   -0.9518    0.0000 C   0  0  0  0  0  0  0  0  0  0  0  0
    1.6198   -0.0000    0.0000 N   0  0  0  0  0  0  0  0  0  0  0  0
  1  2  3  0  0  0  0
  2  3  1  0  0  0  0
  3  8  2  0  0  0  0
  3  4  1  0  0  0  0
  4  5  2  0  0  0  0
  5  6  1  0  0  0  0
  6  7  2  0  0  0  0
  7  8  1  0  0  0  0
  6  9  1  0  0  0  0
  9 10  1  0  0  0  0
 10 15  2  0  0  0  0
 10 11  1  0  0  0  0
 11 12  2  0  0  0  0
 12 13  1  0  0  0  0
 13 14  2  0  0  0  0
 14 15  1  0  0  0  0
 13 16  1  0  0  0  0
 16 17  3  0  0  0  0
  9 18  1  0  0  0  0
 18 22  1  0  0  0  0
 18 19  1  0  0  0  0
 19 20  2  0  0  0  0
 20 21  1  0  0  0  0
 21 22  2  0  0  0  0
M  END
>  <Name>
Letrozole

>  <CAS #>
112809-51-5

>  <human Clearance (mL/min/kg)>
0.57

>  <Primary mechanism (metabolic, biliary or renal)>
metabolism

>  <seqId>
522.0

>  <Code (mechanism and clearance degree index)>
M1

>  < Five M1 and R1 test groups>
M1_3

>  <formamide>
0

>  <prodrug phosphates>
0

>  <VolSurf_V>
653.0

>  <VolSurf_S>
451.961

>  <VolSurf_R>
1.44482

>  <VolSurf_G>
1.3836

>  <VolSurf_IW1>
0.042868

>  <VolSurf_IW2>
0.108466

>  <VolSurf_IW3>
0.230956

>  <VolSurf_IW4>
0.707388

>  <VolSurf_ID1>
0.0300228

>  <VolSurf_ID2>
0.0561782

>  <VolSurf_ID3>
0.0712843

>  <VolSurf_ID4>
0.0748653

>  <VolSurf_HL1>
0.792316

>  <VolSurf_HL2>
0.472299

>  <VolSurf_A>
2.13036

>  <VolSurf_CP>
4.61438

>  <VolSurf_POL>
31.874

>  <VolSurf_MW>
285.303

>  <VolSurf_FLEX>
0.783033

>  <VolSurf_FLEX_RB>
0.156607

>  <VolSurf_NCC>
0.0

>  <VolSurf_LOGP n-Oct>
2.107

>  <VolSurf_LOGP c-Hex>
1.264

>  <VolSurf_PSA>
75.85

>  <VolSurf_HSA>
376.111

>  <VolSurf_PSAR>
0.167824

>  <VolSurf_PHSAR>
0.201669

>  <VolSurf_LgD5>
2.1063

>  <VolSurf_LgD6>
2.10693

>  <VolSurf_LgD7>
2.10699

>  <VolSurf_LgD7.5>
2.107

>  <VolSurf_LgD8>
2.107

>  <VolSurf_LgD9>
2.107

>  <VolSurf_LgD10>
2.107

>  <VolSurf_AUS7.4>
2.0

>  <VolSurf_%FU4>
98.4012

>  <VolSurf_%FU5>
99.8378

>  <VolSurf_%FU6>
99.9837

>  <VolSurf_%FU7>
99.9984

>  <VolSurf_%FU8>
99.9998

>  <VolSurf_%FU9>
100.0

>  <VolSurf_%FU10>
100.0

>  <ID>
257

>  <MOKAID>
258

>  <Clearance Route>
metabolic

>  <PC1>
3.69648

>  <PC2>
-0.00899766

$$$$
Levetiracetam
  -OEChem-08301611272D

 12 12  0     1  0  0  0  0  0999 V2000
   -0.5007    1.5428    0.0000 N   0  0  0  0  0  0  0  0  0  0  0  0
   -0.5022    2.5428    0.0000 C   0  0  2  0  0  0  0  0  0  0  0  0
   -1.3690    3.0415    0.0000 C   0  0  0  0  0  0  0  0  0  0  0  0
   -1.3705    4.0415    0.0000 O   0  0  0  0  0  0  0  0  0  0  0  0
   -2.2343    2.5402    0.0000 N   0  0  0  0  0  0  0  0  0  0  0  0
    0.3630    3.0441    0.0000 C   0  0  0  0  0  0  0  0  0  0  0  0
    0.3615    4.0441    0.0000 C   0  0  0  0  0  0  0  0  0  0  0  0
    0.3118    0.9519    0.0000 C   0  0  0  0  0  0  0  0  0  0  0  0
    1.2633    1.2596    0.0000 O   0  0  0  0  0  0  0  0  0  0  0  0
    0.0000    0.0000    0.0000 C   0  0  0  0  0  0  0  0  0  0  0  0
   -1.0015    0.0000    0.0000 C   0  0  0  0  0  0  0  0  0  0  0  0
   -1.3080    0.9519    0.0000 C   0  0  0  0  0  0  0  0  0  0  0  0
  1 12  1  0  0  0  0
  1  2  1  0  0  0  0
  2  3  1  6  0  0  0
  3  4  2  0  0  0  0
  3  5  1  0  0  0  0
  2  6  1  0  0  0  0
  6  7  1  0  0  0  0
  1  8  1  0  0  0  0
  8  9  2  0  0  0  0
  8 10  1  0  0  0  0
 10 11  1  0  0  0  0
 11 12  1  0  0  0  0
M  END
>  <Name>
Levetiracetam

>  <CAS #>
102767-28-2

>  <human Clearance (mL/min/kg)>
0.96

>  <Primary mechanism (metabolic, biliary or renal)>
renal

>  <seqId>
524.0

>  <Code (mechanism and clearance degree index)>
R1

>  < Five M1 and R1 test groups>
R1_2

>  <formamide>
0

>  <prodrug phosphates>
0

>  <VolSurf_V>
420.25

>  <VolSurf_S>
305.543

>  <VolSurf_R>
1.37542

>  <VolSurf_G>
1.19502

>  <VolSurf_IW1>
0.178031

>  <VolSurf_IW2>
0.436038

>  <VolSurf_IW3>
0.768182

>  <VolSurf_IW4>
1.01234

>  <VolSurf_ID1>
0.0815181

>  <VolSurf_ID2>
0.184097

>  <VolSurf_ID3>
0.257719

>  <VolSurf_ID4>
0.425241

>  <VolSurf_HL1>
8.93421

>  <VolSurf_HL2>
8.45455

>  <VolSurf_A>
4.67771

>  <VolSurf_CP>
0.158789

>  <VolSurf_POL>
17.224

>  <VolSurf_MW>
170.209

>  <VolSurf_FLEX>
0.856825

>  <VolSurf_FLEX_RB>
0.171365

>  <VolSurf_NCC>
0.0

>  <VolSurf_LOGP n-Oct>
-0.478

>  <VolSurf_LOGP c-Hex>
-1.614

>  <VolSurf_PSA>
63.17

>  <VolSurf_HSA>
242.373

>  <VolSurf_PSAR>
0.206747

>  <VolSurf_PHSAR>
0.260632

>  <VolSurf_LgD5>
-0.478

>  <VolSurf_LgD6>
-0.478

>  <VolSurf_LgD7>
-0.478

>  <VolSurf_LgD7.5>
-0.478

>  <VolSurf_LgD8>
-0.478001

>  <VolSurf_LgD9>
-0.478007

>  <VolSurf_LgD10>
-0.478071

>  <VolSurf_AUS7.4>
2.0

>  <VolSurf_%FU4>
100.0

>  <VolSurf_%FU5>
100.0

>  <VolSurf_%FU6>
100.0

>  <VolSurf_%FU7>
100.0

>  <VolSurf_%FU8>
99.9998

>  <VolSurf_%FU9>
99.9984

>  <VolSurf_%FU10>
99.9837

>  <ID>
258

>  <MOKAID>
259

>  <Clearance Route>
metabolic

>  <PC1>
1.96531

>  <PC2>
4.09847

$$$$
Levobupivacaine
  -OEChem-08301611272D

 21 22  0     1  0  0  0  0  0999 V2000
    1.7350    2.0001    0.0000 C   0  0  0  0  0  0  0  0  0  0  0  0
    2.5995    1.4976    0.0000 N   0  0  0  0  0  0  0  0  0  0  0  0
    3.4670    1.9950    0.0000 C   0  0  0  0  0  0  0  0  0  0  0  0
    4.3390    1.4950    0.0000 C   0  0  0  0  0  0  0  0  0  0  0  0
    5.2110    1.9951    0.0000 C   0  0  0  0  0  0  0  0  0  0  0  0
    5.2111    2.9951    0.0000 C   0  0  0  0  0  0  0  0  0  0  0  0
    4.3479    3.5002    0.0000 C   0  0  0  0  0  0  0  0  0  0  0  0
    3.4759    3.0001    0.0000 C   0  0  0  0  0  0  0  0  0  0  0  0
    2.6129    3.5052    0.0000 C   0  0  0  0  0  0  0  0  0  0  0  0
    4.3390    0.4950    0.0000 C   0  0  0  0  0  0  0  0  0  0  0  0
    0.8675    1.5027    0.0000 C   0  0  1  0  0  0  0  0  0  0  0  0
   -0.0000    2.0104    0.0000 N   0  0  1  0  0  0  0  0  0  0  0  0
   -0.0000    3.0104    0.0000 C   0  0  0  0  0  0  0  0  0  0  0  0
   -0.8660    3.5104    0.0000 C   0  0  0  0  0  0  0  0  0  0  0  0
   -0.8660    4.5104    0.0000 C   0  0  0  0  0  0  0  0  0  0  0  0
   -1.7321    5.0104    0.0000 C   0  0  0  0  0  0  0  0  0  0  0  0
   -0.8675    1.5027    0.0000 C   0  0  0  0  0  0  0  0  0  0  0  0
   -0.8675    0.4975    0.0000 C   0  0  0  0  0  0  0  0  0  0  0  0
    0.0000    0.0000    0.0000 C   0  0  0  0  0  0  0  0  0  0  0  0
    0.8675    0.4975    0.0000 C   0  0  0  0  0  0  0  0  0  0  0  0
    1.7379    3.0001    0.0000 O   0  0  0  0  0  0  0  0  0  0  0  0
  1  2  1  0  0  0  0
  2  3  1  0  0  0  0
  3  8  2  0  0  0  0
  3  4  1  0  0  0  0
  4  5  2  0  0  0  0
  5  6  1  0  0  0  0
  6  7  2  0  0  0  0
  7  8  1  0  0  0  0
  8  9  1  0  0  0  0
  4 10  1  0  0  0  0
 11  1  1  6  0  0  0
 11 20  1  0  0  0  0
 11 12  1  0  0  0  0
 12 13  1  6  0  0  0
 13 14  1  0  0  0  0
 14 15  1  0  0  0  0
 15 16  1  0  0  0  0
 12 17  1  0  0  0  0
 17 18  1  0  0  0  0
 18 19  1  0  0  0  0
 19 20  1  0  0  0  0
  1 21  2  0  0  0  0
M  END
>  <Name>
Levobupivacaine

>  <CAS #>
27262-47-1

>  <human Clearance (mL/min/kg)>
8.7

>  <Primary mechanism (metabolic, biliary or renal)>
metabolic

>  <seqId>
525.0

>  <Code (mechanism and clearance degree index)>
M1

>  < Five M1 and R1 test groups>
M1_1

>  <formamide>
0

>  <prodrug phosphates>
0

>  <VolSurf_V>
747.0

>  <VolSurf_S>
504.363

>  <VolSurf_R>
1.48108

>  <VolSurf_G>
1.42583

>  <VolSurf_IW1>
0.0330248

>  <VolSurf_IW2>
0.203198

>  <VolSurf_IW3>
0.481128

>  <VolSurf_IW4>
0.623669

>  <VolSurf_ID1>
0.0155659

>  <VolSurf_ID2>
0.0817359

>  <VolSurf_ID3>
0.223817

>  <VolSurf_ID4>
0.349829

>  <VolSurf_HL1>
1.15571

>  <VolSurf_HL2>
1.62185

>  <VolSurf_A>
3.96993

>  <VolSurf_CP>
1.18021

>  <VolSurf_POL>
36.226

>  <VolSurf_MW>
289.435

>  <VolSurf_FLEX>
1.22617

>  <VolSurf_FLEX_RB>
0.153272

>  <VolSurf_NCC>
1.0

>  <VolSurf_LOGP n-Oct>
3.966

>  <VolSurf_LOGP c-Hex>
3.377

>  <VolSurf_PSA>
40.51

>  <VolSurf_HSA>
463.853

>  <VolSurf_PSAR>
0.0803191

>  <VolSurf_PHSAR>
0.0873337

>  <VolSurf_LgD5>
2.23467

>  <VolSurf_LgD6>
2.43523

>  <VolSurf_LgD7>
3.06789

>  <VolSurf_LgD7.5>
3.43665

>  <VolSurf_LgD8>
3.71655

>  <VolSurf_LgD9>
3.93314

>  <VolSurf_LgD10>
3.96249

>  <VolSurf_AUS7.4>
1.39059

>  <VolSurf_%FU4>
0.012488

>  <VolSurf_%FU5>
0.12474

>  <VolSurf_%FU6>
1.23355

>  <VolSurf_%FU7>
11.1029

>  <VolSurf_%FU8>
55.5349

>  <VolSurf_%FU9>
92.5847

>  <VolSurf_%FU10>
99.1813

>  <ID>
259

>  <MOKAID>
260

>  <Clearance Route>
metabolic

>  <PC1>
3.72945

>  <PC2>
-0.527311

$$$$
Levocabastine
  -OEChem-08301611272D

 31 34  0     1  0  0  0  0  0999 V2000
    0.7807   -2.2810    0.0000 O   0  0  0  0  0  0  0  0  0  0  0  0
    1.1236   -1.3417    0.0000 C   0  0  0  0  0  0  0  0  0  0  0  0
    0.0000    0.0000    0.0000 C   0  0  2  0  0  0  0  0  0  0  0  0
   -0.8675    0.4975    0.0000 C   0  0  0  0  0  0  0  0  0  0  0  0
   -0.8675    1.5027    0.0000 C   0  0  0  0  0  0  0  0  0  0  0  0
    0.0000    2.0104    0.0000 N   0  0  3  0  0  0  0  0  0  0  0  0
    0.8675    1.5027    0.0000 C   0  0  0  0  0  0  0  0  0  0  0  0
    0.8675    0.4975    0.0000 C   0  0  1  0  0  0  0  0  0  0  0  0
    1.7328   -0.0038    0.0000 C   0  0  0  0  0  0  0  0  0  0  0  0
    0.0000    3.0104    0.0000 C   0  0  0  0  0  0  0  0  0  0  0  0
    0.8653    3.5117    0.0000 C   0  0  0  0  0  0  0  0  0  0  0  0
    0.8697    4.5117    0.0000 C   0  0  0  0  0  0  0  0  0  0  0  0
   -0.0001    5.0156    0.0000 C   0  0  0  0  0  0  0  0  0  0  0  0
   -0.8743    4.5194    0.0000 C   0  0  0  0  0  0  0  0  0  0  0  0
   -0.8698    3.5143    0.0000 C   0  0  0  0  0  0  0  0  0  0  0  0
   -0.6388    5.7851    0.0000 C   0  0  0  0  0  0  0  0  0  0  0  0
   -1.2774    6.5545    0.0000 N   0  0  0  0  0  0  0  0  0  0  0  0
    0.6453    5.7794    0.0000 C   0  0  0  0  0  0  0  0  0  0  0  0
    0.3019    6.7241    0.0000 C   0  0  0  0  0  0  0  0  0  0  0  0
    0.9473    7.4880    0.0000 C   0  0  0  0  0  0  0  0  0  0  0  0
    1.9326    7.3168    0.0000 C   0  0  0  0  0  0  0  0  0  0  0  0
    2.2759    6.3720    0.0000 C   0  0  0  0  0  0  0  0  0  0  0  0
    1.6340    5.5986    0.0000 C   0  0  0  0  0  0  0  0  0  0  0  0
    2.5746    8.0835    0.0000 F   0  0  0  0  0  0  0  0  0  0  0  0
   -0.6420   -0.7667    0.0000 C   0  0  0  0  0  0  0  0  0  0  0  0
   -0.2945   -1.7099    0.0000 C   0  0  0  0  0  0  0  0  0  0  0  0
   -0.9366   -2.4766    0.0000 C   0  0  0  0  0  0  0  0  0  0  0  0
   -1.9226   -2.3097    0.0000 C   0  0  0  0  0  0  0  0  0  0  0  0
   -2.2701   -1.3665    0.0000 C   0  0  0  0  0  0  0  0  0  0  0  0
   -1.6316   -0.5902    0.0000 C   0  0  0  0  0  0  0  0  0  0  0  0
    2.1086   -1.1690    0.0000 O   0  0  0  0  0  0  0  0  0  0  0  0
  1  2  1  0  0  0  0
  3  2  1  6  0  0  0
  3  8  1  0  0  0  0
  3  4  1  0  0  0  0
  4  5  1  0  0  0  0
  5  6  1  0  0  0  0
  6  7  1  0  0  0  0
  7  8  1  0  0  0  0
  8  9  1  1  0  0  0
  6 10  1  0  0  0  0
 10 15  1  0  0  0  0
 10 11  1  0  0  0  0
 11 12  1  0  0  0  0
 12 13  1  0  0  0  0
 13 14  1  0  0  0  0
 14 15  1  0  0  0  0
 13 16  1  0  0  0  0
 16 17  3  0  0  0  0
 13 18  1  0  0  0  0
 18 23  2  0  0  0  0
 18 19  1  0  0  0  0
 19 20  2  0  0  0  0
 20 21  1  0  0  0  0
 21 22  2  0  0  0  0
 22 23  1  0  0  0  0
 21 24  1  0  0  0  0
  3 25  1  0  0  0  0
 25 30  2  0  0  0  0
 25 26  1  0  0  0  0
 26 27  2  0  0  0  0
 27 28  1  0  0  0  0
 28 29  2  0  0  0  0
 29 30  1  0  0  0  0
  2 31  2  0  0  0  0
M  END
>  <Name>
Levocabastine

>  <CAS #>
79516-68-0

>  <human Clearance (mL/min/kg)>
0.43

>  <Primary mechanism (metabolic, biliary or renal)>
renal

>  <seqId>
526.0

>  <Code (mechanism and clearance degree index)>
R1

>  < Five M1 and R1 test groups>
R1_5

>  <formamide>
0

>  <prodrug phosphates>
0

>  <VolSurf_V>
929.125

>  <VolSurf_S>
592.507

>  <VolSurf_R>
1.56813

>  <VolSurf_G>
1.45962

>  <VolSurf_IW1>
0.044547

>  <VolSurf_IW2>
0.117057

>  <VolSurf_IW3>
0.29659

>  <VolSurf_IW4>
1.09086

>  <VolSurf_ID1>
0.0185737

>  <VolSurf_ID2>
0.0858746

>  <VolSurf_ID3>
0.186804

>  <VolSurf_ID4>
0.269414

>  <VolSurf_HL1>
2.45455

>  <VolSurf_HL2>
1.89091

>  <VolSurf_A>
4.12488

>  <VolSurf_CP>
0.683365

>  <VolSurf_POL>
47.552

>  <VolSurf_MW>
420.519

>  <VolSurf_FLEX>
0.727205

>  <VolSurf_FLEX_RB>
0.121201

>  <VolSurf_NCC>
2.0

>  <VolSurf_LOGP n-Oct>
4.33

>  <VolSurf_LOGP c-Hex>
4.477

>  <VolSurf_PSA>
86.72

>  <VolSurf_HSA>
505.787

>  <VolSurf_PSAR>
0.146361

>  <VolSurf_PHSAR>
0.171456

>  <VolSurf_LgD5>
2.01758

>  <VolSurf_LgD6>
2.02764

>  <VolSurf_LgD7>
2.01887

>  <VolSurf_LgD7.5>
1.99619

>  <VolSurf_LgD8>
1.93213

>  <VolSurf_LgD9>
1.52599

>  <VolSurf_LgD10>
1.01243

>  <VolSurf_AUS7.4>
0.0

>  <VolSurf_%FU4>
0.0

>  <VolSurf_%FU5>
0.0

>  <VolSurf_%FU6>
0.0

>  <VolSurf_%FU7>
0.0

>  <VolSurf_%FU8>
0.0

>  <VolSurf_%FU9>
0.0

>  <VolSurf_%FU10>
0.0

>  <ID>
260

>  <MOKAID>
261

>  <Clearance Route>
possible billary

>  <PC1>
1.34877

>  <PC2>
-1.65157

$$$$
Levofloxacin
  -OEChem-08301611272D

 26 29  0     1  0  0  0  0  0999 V2000
   -0.8675    1.5063    0.0000 C   0  0  0  0  0  0  0  0  0  0  0  0
    0.0000    1.0089    0.0000 C   0  0  1  0  0  0  0  0  0  0  0  0
    0.0000    0.0000    0.0000 C   0  0  0  0  0  0  0  0  0  0  0  0
    0.8707   -0.4993    0.0000 O   0  0  0  0  0  0  0  0  0  0  0  0
    1.7371    0.0000    0.0000 C   0  0  0  0  0  0  0  0  0  0  0  0
    2.6039   -0.5053    0.0000 C   0  0  0  0  0  0  0  0  0  0  0  0
    2.5983   -1.5053    0.0000 N   0  0  0  0  0  0  0  0  0  0  0  0
    1.7280   -2.0079    0.0000 C   0  0  0  0  0  0  0  0  0  0  0  0
    1.7224   -3.0130    0.0000 C   0  0  0  0  0  0  0  0  0  0  0  0
    2.5870   -3.5155    0.0000 N   0  0  0  0  0  0  0  0  0  0  0  0
    2.5814   -4.5154    0.0000 C   0  0  0  0  0  0  0  0  0  0  0  0
    3.4572   -3.0227    0.0000 C   0  0  0  0  0  0  0  0  0  0  0  0
    3.4628   -2.0177    0.0000 C   0  0  0  0  0  0  0  0  0  0  0  0
    3.4805   -0.0074    0.0000 C   0  0  0  0  0  0  0  0  0  0  0  0
    4.3437   -0.5123    0.0000 F   0  0  0  0  0  0  0  0  0  0  0  0
    3.4848    1.0014    0.0000 C   0  0  0  0  0  0  0  0  0  0  0  0
    2.6132    1.4980    0.0000 C   0  0  0  0  0  0  0  0  0  0  0  0
    2.6262    2.5061    0.0000 C   0  0  0  0  0  0  0  0  0  0  0  0
    3.4979    2.9961    0.0000 O   0  0  0  0  0  0  0  0  0  0  0  0
    1.7576    3.0193    0.0000 C   0  0  0  0  0  0  0  0  0  0  0  0
    0.8761    2.5245    0.0000 C   0  0  0  0  0  0  0  0  0  0  0  0
    0.8707    1.5185    0.0000 N   0  0  0  0  0  0  0  0  0  0  0  0
    1.7393    1.0052    0.0000 C   0  0  0  0  0  0  0  0  0  0  0  0
    1.7687    4.0192    0.0000 C   0  0  0  0  0  0  0  0  0  0  0  0
    2.6402    4.5096    0.0000 O   0  0  0  0  0  0  0  0  0  0  0  0
    0.9083    4.5288    0.0000 O   0  0  0  0  0  0  0  0  0  0  0  0
  2  1  1  6  0  0  0
  2 22  1  0  0  0  0
  2  3  1  0  0  0  0
  3  4  1  0  0  0  0
  4  5  1  0  0  0  0
  5 23  2  0  0  0  0
  5  6  1  0  0  0  0
  6  7  1  0  0  0  0
  7 13  1  0  0  0  0
  7  8  1  0  0  0  0
  8  9  1  0  0  0  0
  9 10  1  0  0  0  0
 10 11  1  0  0  0  0
 10 12  1  0  0  0  0
 12 13  1  0  0  0  0
  6 14  2  0  0  0  0
 14 15  1  0  0  0  0
 14 16  1  0  0  0  0
 16 17  2  0  0  0  0
 17 23  1  0  0  0  0
 17 18  1  0  0  0  0
 18 19  2  0  0  0  0
 18 20  1  0  0  0  0
 20 21  2  0  0  0  0
 21 22  1  0  0  0  0
 22 23  1  0  0  0  0
 20 24  1  0  0  0  0
 24 25  2  0  0  0  0
 24 26  1  0  0  0  0
M  END
>  <Name>
Levofloxacin

>  <CAS #>
100986-85-4

>  <human Clearance (mL/min/kg)>
1.9

>  <Primary mechanism (metabolic, biliary or renal)>
renal

>  <seqId>
528.0

>  <Code (mechanism and clearance degree index)>
R1

>  < Five M1 and R1 test groups>
R1_1

>  <formamide>
0

>  <prodrug phosphates>
0

>  <VolSurf_V>
736.875

>  <VolSurf_S>
494.401

>  <VolSurf_R>
1.49044

>  <VolSurf_G>
1.40281

>  <VolSurf_IW1>
0.147082

>  <VolSurf_IW2>
0.341088

>  <VolSurf_IW3>
0.886261

>  <VolSurf_IW4>
1.71661

>  <VolSurf_ID1>
0.0270393

>  <VolSurf_ID2>
0.0272076

>  <VolSurf_ID3>
0.0612885

>  <VolSurf_ID4>
0.154097

>  <VolSurf_HL1>
4.38298

>  <VolSurf_HL2>
2.87117

>  <VolSurf_A>
4.35596

>  <VolSurf_CP>
1.70378

>  <VolSurf_POL>
35.725

>  <VolSurf_MW>
361.367

>  <VolSurf_FLEX>
0.249934

>  <VolSurf_FLEX_RB>
0.0624834

>  <VolSurf_NCC>
2.0

>  <VolSurf_LOGP n-Oct>
1.851

>  <VolSurf_LOGP c-Hex>
-1.839

>  <VolSurf_PSA>
97.45

>  <VolSurf_HSA>
396.951

>  <VolSurf_PSAR>
0.197107

>  <VolSurf_PHSAR>
0.245497

>  <VolSurf_LgD5>
-1.08364

>  <VolSurf_LgD6>
-0.621826

>  <VolSurf_LgD7>
-0.393542

>  <VolSurf_LgD7.5>
-0.416269

>  <VolSurf_LgD8>
-0.530057

>  <VolSurf_LgD9>
-0.933334

>  <VolSurf_LgD10>
-1.11814

>  <VolSurf_AUS7.4>
0.0

>  <VolSurf_%FU4>
0.0

>  <VolSurf_%FU5>
0.0

>  <VolSurf_%FU6>
0.0

>  <VolSurf_%FU7>
0.0

>  <VolSurf_%FU8>
0.0

>  <VolSurf_%FU9>
0.0

>  <VolSurf_%FU10>
0.0

>  <ID>
261

>  <MOKAID>
262

>  <Clearance Route>
uncertain

>  <PC1>
-0.517188

>  <PC2>
0.6803899999999999

$$$$
Libenzapril
  -OEChem-08301611272D

 26 27  0     1  0  0  0  0  0999 V2000
   -2.5006   -0.8642    0.0000 C   0  0  0  0  0  0  0  0  0  0  0  0
   -1.5006   -0.8649    0.0000 C   0  0  1  0  0  0  0  0  0  0  0  0
   -1.0000    0.0007    0.0000 N   0  0  0  0  0  0  0  0  0  0  0  0
    0.0000    0.0000    0.0000 C   0  0  1  0  0  0  0  0  0  0  0  0
    0.4360   -0.9143    0.0000 C   0  0  0  0  0  0  0  0  0  0  0  0
    1.4241   -1.1362    0.0000 C   0  0  0  0  0  0  0  0  0  0  0  0
    2.2192   -0.5026    0.0000 C   0  0  0  0  0  0  0  0  0  0  0  0
    2.2220    0.5029    0.0000 C   0  0  0  0  0  0  0  0  0  0  0  0
    3.0895    1.0060    0.0000 C   0  0  0  0  0  0  0  0  0  0  0  0
    3.9596    0.4979    0.0000 C   0  0  0  0  0  0  0  0  0  0  0  0
    3.9567   -0.5076    0.0000 C   0  0  0  0  0  0  0  0  0  0  0  0
    3.0837   -1.0052    0.0000 C   0  0  0  0  0  0  0  0  0  0  0  0
    1.4290    1.1418    0.0000 N   0  0  0  0  0  0  0  0  0  0  0  0
    1.8228    2.8469    0.0000 C   0  0  0  0  0  0  0  0  0  0  0  0
    1.0915    3.5290    0.0000 C   0  0  0  0  0  0  0  0  0  0  0  0
    1.3166    4.5033    0.0000 O   0  0  0  0  0  0  0  0  0  0  0  0
    0.1352    3.2367    0.0000 O   0  0  0  0  0  0  0  0  0  0  0  0
    0.4384    0.9159    0.0000 C   0  0  0  0  0  0  0  0  0  0  0  0
   -0.1859    1.6971    0.0000 O   0  0  0  0  0  0  0  0  0  0  0  0
   -1.0013   -1.7313    0.0000 C   0  0  0  0  0  0  0  0  0  0  0  0
   -1.5019   -2.5970    0.0000 C   0  0  0  0  0  0  0  0  0  0  0  0
   -1.0025   -3.4634    0.0000 C   0  0  0  0  0  0  0  0  0  0  0  0
   -1.5031   -4.3290    0.0000 C   0  0  0  0  0  0  0  0  0  0  0  0
   -1.0038   -5.1954    0.0000 N   0  0  0  0  0  0  0  0  0  0  0  0
   -3.0013   -1.7299    0.0000 O   0  0  0  0  0  0  0  0  0  0  0  0
   -3.0000    0.0022    0.0000 O   0  0  0  0  0  0  0  0  0  0  0  0
  2  1  1  1  0  0  0
  2  3  1  0  0  0  0
  4  3  1  6  0  0  0
  4 18  1  0  0  0  0
  4  5  1  0  0  0  0
  5  6  1  0  0  0  0
  6  7  1  0  0  0  0
  7 12  2  0  0  0  0
  7  8  1  0  0  0  0
  8  9  2  0  0  0  0
  9 10  1  0  0  0  0
 10 11  2  0  0  0  0
 11 12  1  0  0  0  0
  8 13  1  0  0  0  0
 13 14  1  0  0  0  0
 14 15  1  0  0  0  0
 15 16  1  0  0  0  0
 15 17  2  0  0  0  0
 13 18  1  0  0  0  0
 18 19  2  0  0  0  0
  2 20  1  0  0  0  0
 20 21  1  0  0  0  0
 21 22  1  0  0  0  0
 22 23  1  0  0  0  0
 23 24  1  0  0  0  0
  1 25  1  0  0  0  0
  1 26  2  0  0  0  0
M  END
>  <Name>
Libenzapril

>  <CAS #>
109214-55-3

>  <human Clearance (mL/min/kg)>
1.23

>  <Primary mechanism (metabolic, biliary or renal)>
renal

>  <seqId>
535.0

>  <Code (mechanism and clearance degree index)>
R1

>  < Five M1 and R1 test groups>
R1_1

>  <formamide>
0

>  <prodrug phosphates>
0

>  <VolSurf_V>
769.875

>  <VolSurf_S>
515.789

>  <VolSurf_R>
1.49262

>  <VolSurf_G>
1.43074

>  <VolSurf_IW1>
0.0889911

>  <VolSurf_IW2>
0.170033

>  <VolSurf_IW3>
0.366665

>  <VolSurf_IW4>
0.710365

>  <VolSurf_ID1>
0.063102

>  <VolSurf_ID2>
0.0955595

>  <VolSurf_ID3>
0.219205

>  <VolSurf_ID4>
0.0

>  <VolSurf_HL1>
38.5714

>  <VolSurf_HL2>
98.0909

>  <VolSurf_A>
4.99399

>  <VolSurf_CP>
0.0431212

>  <VolSurf_POL>
37.809

>  <VolSurf_MW>
362.4

>  <VolSurf_FLEX>
2.10991

>  <VolSurf_FLEX_RB>
0.210991

>  <VolSurf_NCC>
3.0

>  <VolSurf_LOGP n-Oct>
0.208

>  <VolSurf_LOGP c-Hex>
-3.866

>  <VolSurf_PSA>
158.96

>  <VolSurf_HSA>
356.829

>  <VolSurf_PSAR>
0.308188

>  <VolSurf_PHSAR>
0.44548

>  <VolSurf_LgD5>
-1.69416

>  <VolSurf_LgD6>
-1.74135

>  <VolSurf_LgD7>
-2.05776

>  <VolSurf_LgD7.5>
-2.40854

>  <VolSurf_LgD8>
-2.8477

>  <VolSurf_LgD9>
-3.8117

>  <VolSurf_LgD10>
-4.73671

>  <VolSurf_AUS7.4>
0.0

>  <VolSurf_%FU4>
0.0

>  <VolSurf_%FU5>
0.0

>  <VolSurf_%FU6>
0.0

>  <VolSurf_%FU7>
0.0

>  <VolSurf_%FU8>
0.0

>  <VolSurf_%FU9>
0.0

>  <VolSurf_%FU10>
0.0

>  <ID>
262

>  <MOKAID>
263

>  <Clearance Route>
renal

>  <PC1>
-2.94504

>  <PC2>
0.380285

$$$$
Lidocaine
  -OEChem-08301611272D

 17 17  0     0  0  0  0  0  0999 V2000
    3.4656    6.0129    0.0000 C   0  0  0  0  0  0  0  0  0  0  0  0
    2.5996    5.5129    0.0000 C   0  0  0  0  0  0  0  0  0  0  0  0
    2.5996    4.5129    0.0000 N   0  0  0  0  0  0  0  0  0  0  0  0
    3.4656    4.0129    0.0000 C   0  0  0  0  0  0  0  0  0  0  0  0
    4.3316    4.5129    0.0000 C   0  0  0  0  0  0  0  0  0  0  0  0
    1.7335    4.0129    0.0000 C   0  0  0  0  0  0  0  0  0  0  0  0
    1.7335    3.0129    0.0000 C   0  0  0  0  0  0  0  0  0  0  0  0
    2.5996    2.5129    0.0000 O   0  0  0  0  0  0  0  0  0  0  0  0
    0.8675    2.5129    0.0000 N   0  0  0  0  0  0  0  0  0  0  0  0
    0.8675    1.5129    0.0000 C   0  0  0  0  0  0  0  0  0  0  0  0
    0.0000    1.0052    0.0000 C   0  0  0  0  0  0  0  0  0  0  0  0
   -0.8675    1.5026    0.0000 C   0  0  0  0  0  0  0  0  0  0  0  0
    0.0000    0.0000    0.0000 C   0  0  0  0  0  0  0  0  0  0  0  0
    0.8675   -0.4975    0.0000 C   0  0  0  0  0  0  0  0  0  0  0  0
    1.7350    0.0000    0.0000 C   0  0  0  0  0  0  0  0  0  0  0  0
    1.7350    1.0052    0.0000 C   0  0  0  0  0  0  0  0  0  0  0  0
    2.6025    1.5026    0.0000 C   0  0  0  0  0  0  0  0  0  0  0  0
  1  2  1  0  0  0  0
  2  3  1  0  0  0  0
  3  4  1  0  0  0  0
  4  5  1  0  0  0  0
  3  6  1  0  0  0  0
  6  7  1  0  0  0  0
  7  8  2  0  0  0  0
  7  9  1  0  0  0  0
  9 10  1  0  0  0  0
 10 16  2  0  0  0  0
 10 11  1  0  0  0  0
 11 12  1  0  0  0  0
 11 13  2  0  0  0  0
 13 14  1  0  0  0  0
 14 15  2  0  0  0  0
 15 16  1  0  0  0  0
 16 17  1  0  0  0  0
M  END
>  <Name>
Lidocaine

>  <CAS #>
137-58-6

>  <human Clearance (mL/min/kg)>
16.0

>  <Primary mechanism (metabolic, biliary or renal)>
metabolic

>  <seqId>
537.0

>  <Code (mechanism and clearance degree index)>
M1

>  < Five M1 and R1 test groups>
M1_2

>  <formamide>
0

>  <prodrug phosphates>
0

>  <VolSurf_V>
618.5

>  <VolSurf_S>
425.636

>  <VolSurf_R>
1.45312

>  <VolSurf_G>
1.33503

>  <VolSurf_IW1>
0.064313

>  <VolSurf_IW2>
0.313415

>  <VolSurf_IW3>
0.688992

>  <VolSurf_IW4>
0.838

>  <VolSurf_ID1>
0.0254217

>  <VolSurf_ID2>
0.120184

>  <VolSurf_ID3>
0.25046

>  <VolSurf_ID4>
0.310799

>  <VolSurf_HL1>
1.39431

>  <VolSurf_HL2>
1.71818

>  <VolSurf_A>
4.61615

>  <VolSurf_CP>
0.821941

>  <VolSurf_POL>
29.66

>  <VolSurf_MW>
235.345

>  <VolSurf_FLEX>
1.24208

>  <VolSurf_FLEX_RB>
0.138009

>  <VolSurf_NCC>
1.0

>  <VolSurf_LOGP n-Oct>
2.665

>  <VolSurf_LOGP c-Hex>
1.77

>  <VolSurf_PSA>
40.51

>  <VolSurf_HSA>
385.126

>  <VolSurf_PSAR>
0.0951751

>  <VolSurf_PHSAR>
0.105186

>  <VolSurf_LgD5>
-0.218193

>  <VolSurf_LgD6>
0.753828

>  <VolSurf_LgD7>
1.70621

>  <VolSurf_LgD7.5>
2.11345

>  <VolSurf_LgD8>
2.40734

>  <VolSurf_LgD9>
2.63117

>  <VolSurf_LgD10>
2.6614

>  <VolSurf_AUS7.4>
1.38685

>  <VolSurf_%FU4>
0.0123438

>  <VolSurf_%FU5>
0.123301

>  <VolSurf_%FU6>
1.21948

>  <VolSurf_%FU7>
10.9887

>  <VolSurf_%FU8>
55.2478

>  <VolSurf_%FU9>
92.5048

>  <VolSurf_%FU10>
99.1741

>  <ID>
263

>  <MOKAID>
264

>  <Clearance Route>
metabolic

>  <PC1>
2.86001

>  <PC2>
1.02634

$$$$
Linagliptin
  -OEChem-08301611272D

 35 39  0     1  0  0  0  0  0999 V2000
    6.2102    4.4974    0.0000 C   0  0  0  0  0  0  0  0  0  0  0  0
    6.8773    3.7525    0.0000 C   0  0  0  0  0  0  0  0  0  0  0  0
    7.5445    3.0076    0.0000 C   0  0  0  0  0  0  0  0  0  0  0  0
    8.2117    2.2627    0.0000 C   0  0  0  0  0  0  0  0  0  0  0  0
    7.9001    1.3124    0.0000 N   0  0  0  0  0  0  0  0  0  0  0  0
    8.4900    0.4963    0.0000 C   0  0  0  0  0  0  0  0  0  0  0  0
    7.8959   -0.3170    0.0000 N   0  0  0  0  0  0  0  0  0  0  0  0
    6.9389   -0.0032    0.0000 C   0  0  0  0  0  0  0  0  0  0  0  0
    6.9415    1.0039    0.0000 C   0  0  0  0  0  0  0  0  0  0  0  0
    6.0749    1.5141    0.0000 C   0  0  0  0  0  0  0  0  0  0  0  0
    6.0775    2.5141    0.0000 O   0  0  0  0  0  0  0  0  0  0  0  0
    5.2056    1.0084    0.0000 N   0  0  0  0  0  0  0  0  0  0  0  0
    4.3394    1.5082    0.0000 C   0  0  0  0  0  0  0  0  0  0  0  0
    3.4735    1.0079    0.0000 C   0  0  0  0  0  0  0  0  0  0  0  0
    2.6012    1.5123    0.0000 N   0  0  0  0  0  0  0  0  0  0  0  0
    1.7358    1.0056    0.0000 C   0  0  0  0  0  0  0  0  0  0  0  0
    1.7371    0.0000    0.0000 C   0  0  0  0  0  0  0  0  0  0  0  0
    0.8679   -0.4977    0.0000 C   0  0  0  0  0  0  0  0  0  0  0  0
    0.0000    0.0000    0.0000 C   0  0  0  0  0  0  0  0  0  0  0  0
   -0.0000    1.0056    0.0000 C   0  0  0  0  0  0  0  0  0  0  0  0
    0.8679    1.5135    0.0000 C   0  0  0  0  0  0  0  0  0  0  0  0
    2.6038   -0.4989    0.0000 C   0  0  0  0  0  0  0  0  0  0  0  0
    2.6037   -1.4989    0.0000 C   0  0  0  0  0  0  0  0  0  0  0  0
    3.4748    0.0023    0.0000 N   0  0  0  0  0  0  0  0  0  0  0  0
    5.2029    0.0026    0.0000 C   0  0  0  0  0  0  0  0  0  0  0  0
    4.3363   -0.4963    0.0000 O   0  0  0  0  0  0  0  0  0  0  0  0
    6.0696   -0.4975    0.0000 N   0  0  0  0  0  0  0  0  0  0  0  0
    6.0665   -1.4975    0.0000 C   0  0  0  0  0  0  0  0  0  0  0  0
    9.4900    0.4938    0.0000 N   0  0  3  0  0  0  0  0  0  0  0  0
    9.9955   -0.3750    0.0000 C   0  0  0  0  0  0  0  0  0  0  0  0
   11.0007   -0.3776    0.0000 C   0  0  0  0  0  0  0  0  0  0  0  0
   11.5004    0.4887    0.0000 C   0  0  0  0  0  0  0  0  0  0  0  0
   11.0051    1.3574    0.0000 C   0  0  1  0  0  0  0  0  0  0  0  0
   11.5086    2.2214    0.0000 N   0  0  0  0  0  0  0  0  0  0  0  0
    9.9999    1.3600    0.0000 C   0  0  0  0  0  0  0  0  0  0  0  0
  1  2  1  0  0  0  0
  2  3  3  0  0  0  0
  3  4  1  0  0  0  0
  4  5  1  0  0  0  0
  5  9  1  0  0  0  0
  5  6  1  0  0  0  0
  6  7  2  0  0  0  0
  7  8  1  0  0  0  0
  8 27  1  0  0  0  0
  8  9  2  0  0  0  0
  9 10  1  0  0  0  0
 10 11  2  0  0  0  0
 10 12  1  0  0  0  0
 12 13  1  0  0  0  0
 13 14  1  0  0  0  0
 14 24  1  0  0  0  0
 14 15  2  0  0  0  0
 15 16  1  0  0  0  0
 16 21  1  0  0  0  0
 16 17  2  0  0  0  0
 17 18  1  0  0  0  0
 18 19  2  0  0  0  0
 19 20  1  0  0  0  0
 20 21  2  0  0  0  0
 17 22  1  0  0  0  0
 22 23  1  0  0  0  0
 22 24  2  0  0  0  0
 12 25  1  0  0  0  0
 25 26  2  0  0  0  0
 25 27  1  0  0  0  0
 27 28  1  0  0  0  0
  6 29  1  0  0  0  0
 29 35  1  0  0  0  0
 29 30  1  0  0  0  0
 30 31  1  0  0  0  0
 31 32  1  0  0  0  0
 32 33  1  0  0  0  0
 33 34  1  6  0  0  0
 33 35  1  0  0  0  0
M  END
>  <Name>
Linagliptin

>  <CAS #>
668270-12-0

>  <human Clearance (mL/min/kg)>
1.9

>  <Primary mechanism (metabolic, biliary or renal)>


>  <seqId>
538.0

>  <Code (mechanism and clearance degree index)>
B1

>  < Five M1 and R1 test groups>
31

>  <formamide>
0

>  <prodrug phosphates>
0

>  <VolSurf_V>
1017.0

>  <VolSurf_S>
686.247

>  <VolSurf_R>
1.48197

>  <VolSurf_G>
1.66216

>  <VolSurf_IW1>
0.0344999

>  <VolSurf_IW2>
0.0952706

>  <VolSurf_IW3>
0.164215

>  <VolSurf_IW4>
0.194871

>  <VolSurf_ID1>
0.0248637

>  <VolSurf_ID2>
0.0313182

>  <VolSurf_ID3>
0.03985

>  <VolSurf_ID4>
0.0412669

>  <VolSurf_HL1>
2.23891

>  <VolSurf_HL2>
1.73434

>  <VolSurf_A>
1.41344

>  <VolSurf_CP>
2.50844

>  <VolSurf_POL>
52.481

>  <VolSurf_MW>
473.55

>  <VolSurf_FLEX>
1.69243

>  <VolSurf_FLEX_RB>
0.188047

>  <VolSurf_NCC>
1.0

>  <VolSurf_LOGP n-Oct>
3.084

>  <VolSurf_LOGP c-Hex>
0.175

>  <VolSurf_PSA>
118.68

>  <VolSurf_HSA>
567.568

>  <VolSurf_PSAR>
0.172941

>  <VolSurf_PHSAR>
0.209103

>  <VolSurf_LgD5>
-0.16119

>  <VolSurf_LgD6>
0.289486

>  <VolSurf_LgD7>
1.12878

>  <VolSurf_LgD7.5>
1.60415

>  <VolSurf_LgD8>
2.06977

>  <VolSurf_LgD9>
2.79672

>  <VolSurf_LgD10>
3.04506

>  <VolSurf_AUS7.4>
0.519071

>  <VolSurf_%FU4>
3.53612E-4

>  <VolSurf_%FU5>
0.00890237

>  <VolSurf_%FU6>
0.104374

>  <VolSurf_%FU7>
1.05205

>  <VolSurf_%FU8>
9.62583

>  <VolSurf_%FU9>
51.5808

>  <VolSurf_%FU10>
91.4186

>  <ID>
264

>  <MOKAID>
265

>  <Clearance Route>
possible billary

>  <PC1>
0.9952200000000001

>  <PC2>
-2.64281

$$$$
Linezolid
  -OEChem-08301611272D

 24 26  0     1  0  0  0  0  0999 V2000
    1.7614   -9.4816    0.0000 C   0  0  0  0  0  0  0  0  0  0  0  0
    2.1627   -8.5657    0.0000 C   0  0  0  0  0  0  0  0  0  0  0  0
    3.1566   -8.4553    0.0000 O   0  0  0  0  0  0  0  0  0  0  0  0
    1.5702   -7.7602    0.0000 N   0  0  0  0  0  0  0  0  0  0  0  0
    1.9715   -6.8442    0.0000 C   0  0  0  0  0  0  0  0  0  0  0  0
    1.3789   -6.0387    0.0000 C   0  0  1  0  0  0  0  0  0  0  0  0
    1.6852   -5.0868    0.0000 C   0  0  0  0  0  0  0  0  0  0  0  0
    0.8718   -4.5026    0.0000 N   0  0  0  0  0  0  0  0  0  0  0  0
    0.0634   -5.0940    0.0000 C   0  0  0  0  0  0  0  0  0  0  0  0
   -0.8890   -4.7890    0.0000 O   0  0  0  0  0  0  0  0  0  0  0  0
    0.3787   -6.0477    0.0000 O   0  0  0  0  0  0  0  0  0  0  0  0
    0.8674   -3.5027    0.0000 C   0  0  0  0  0  0  0  0  0  0  0  0
    1.7372   -2.9988    0.0000 C   0  0  0  0  0  0  0  0  0  0  0  0
    1.7328   -1.9988    0.0000 C   0  0  0  0  0  0  0  0  0  0  0  0
    0.8675   -1.4975    0.0000 C   0  0  0  0  0  0  0  0  0  0  0  0
    0.8675   -0.4975    0.0000 N   0  0  0  0  0  0  0  0  0  0  0  0
    0.0000    0.0000    0.0000 C   0  0  0  0  0  0  0  0  0  0  0  0
   -0.0000    1.0052    0.0000 C   0  0  0  0  0  0  0  0  0  0  0  0
    0.8675    1.5129    0.0000 O   0  0  0  0  0  0  0  0  0  0  0  0
    1.7350    1.0052    0.0000 C   0  0  0  0  0  0  0  0  0  0  0  0
    1.7350    0.0000    0.0000 C   0  0  0  0  0  0  0  0  0  0  0  0
   -0.0023   -2.0014    0.0000 C   0  0  0  0  0  0  0  0  0  0  0  0
   -0.8676   -1.5001    0.0000 F   0  0  0  0  0  0  0  0  0  0  0  0
   -0.0068   -3.0065    0.0000 C   0  0  0  0  0  0  0  0  0  0  0  0
  1  2  1  0  0  0  0
  2  3  2  0  0  0  0
  2  4  1  0  0  0  0
  4  5  1  0  0  0  0
  6  5  1  6  0  0  0
  6 11  1  0  0  0  0
  6  7  1  0  0  0  0
  7  8  1  0  0  0  0
  8  9  1  0  0  0  0
  9 10  2  0  0  0  0
  9 11  1  0  0  0  0
  8 12  1  0  0  0  0
 12 24  2  0  0  0  0
 12 13  1  0  0  0  0
 13 14  2  0  0  0  0
 14 15  1  0  0  0  0
 15 16  1  0  0  0  0
 16 21  1  0  0  0  0
 16 17  1  0  0  0  0
 17 18  1  0  0  0  0
 18 19  1  0  0  0  0
 19 20  1  0  0  0  0
 20 21  1  0  0  0  0
 15 22  2  0  0  0  0
 22 23  1  0  0  0  0
 22 24  1  0  0  0  0
M  END
>  <Name>
Linezolid

>  <CAS #>
165800-03-3

>  <human Clearance (mL/min/kg)>
1.8

>  <Primary mechanism (metabolic, biliary or renal)>
metabolic

>  <seqId>
540.0

>  <Code (mechanism and clearance degree index)>
M1

>  < Five M1 and R1 test groups>
M1_1

>  <formamide>
0

>  <prodrug phosphates>
0

>  <VolSurf_V>
721.625

>  <VolSurf_S>
500.465

>  <VolSurf_R>
1.44191

>  <VolSurf_G>
1.45889

>  <VolSurf_IW1>
0.0507771

>  <VolSurf_IW2>
0.12953

>  <VolSurf_IW3>
0.29811

>  <VolSurf_IW4>
0.948753

>  <VolSurf_ID1>
0.0355867

>  <VolSurf_ID2>
0.0385194

>  <VolSurf_ID3>
0.0533359

>  <VolSurf_ID4>
0.0527147

>  <VolSurf_HL1>
2.92635

>  <VolSurf_HL2>
1.96491

>  <VolSurf_A>
2.35445

>  <VolSurf_CP>
1.75929

>  <VolSurf_POL>
32.44

>  <VolSurf_MW>
337.346

>  <VolSurf_FLEX>
1.079

>  <VolSurf_FLEX_RB>
0.215799

>  <VolSurf_NCC>
0.0

>  <VolSurf_LOGP n-Oct>
1.142

>  <VolSurf_LOGP c-Hex>
-3.801

>  <VolSurf_PSA>
79.35

>  <VolSurf_HSA>
421.115

>  <VolSurf_PSAR>
0.158553

>  <VolSurf_PHSAR>
0.188428

>  <VolSurf_LgD5>
1.14193

>  <VolSurf_LgD6>
1.14199

>  <VolSurf_LgD7>
1.14199

>  <VolSurf_LgD7.5>
1.14197

>  <VolSurf_LgD8>
1.14189

>  <VolSurf_LgD9>
1.14094

>  <VolSurf_LgD10>
1.1315

>  <VolSurf_AUS7.4>
2.0

>  <VolSurf_%FU4>
99.8423

>  <VolSurf_%FU5>
99.9842

>  <VolSurf_%FU6>
99.9982

>  <VolSurf_%FU7>
99.9974

>  <VolSurf_%FU8>
99.9755

>  <VolSurf_%FU9>
99.7558

>  <VolSurf_%FU10>
97.6104

>  <ID>
265

>  <MOKAID>
266

>  <Clearance Route>
metabolic

>  <PC1>
2.7044200000000003

>  <PC2>
0.00315823

$$$$
Lisinopril
  -OEChem-08301611272D

 29 30  0     1  0  0  0  0  0999 V2000
    1.3584    7.0441    0.0000 N   0  0  0  0  0  0  0  0  0  0  0  0
    1.3599    6.0441    0.0000 C   0  0  0  0  0  0  0  0  0  0  0  0
    0.4947    5.5428    0.0000 C   0  0  0  0  0  0  0  0  0  0  0  0
    0.4962    4.5428    0.0000 C   0  0  0  0  0  0  0  0  0  0  0  0
   -0.3690    4.0415    0.0000 C   0  0  0  0  0  0  0  0  0  0  0  0
   -0.3675    3.0415    0.0000 C   0  0  2  0  0  0  0  0  0  0  0  0
   -1.2328    2.5402    0.0000 N   0  0  0  0  0  0  0  0  0  0  0  0
   -2.0996    3.0388    0.0000 C   0  0  1  0  0  0  0  0  0  0  0  0
   -2.1011    4.0388    0.0000 C   0  0  0  0  0  0  0  0  0  0  0  0
   -1.2358    4.5401    0.0000 C   0  0  0  0  0  0  0  0  0  0  0  0
   -1.2374    5.5401    0.0000 C   0  0  0  0  0  0  0  0  0  0  0  0
   -0.3661    6.0415    0.0000 C   0  0  0  0  0  0  0  0  0  0  0  0
   -0.3676    7.0415    0.0000 C   0  0  0  0  0  0  0  0  0  0  0  0
   -1.2315    7.5453    0.0000 C   0  0  0  0  0  0  0  0  0  0  0  0
   -2.1027    7.0439    0.0000 C   0  0  0  0  0  0  0  0  0  0  0  0
   -2.1101    6.0388    0.0000 C   0  0  0  0  0  0  0  0  0  0  0  0
   -2.9648    2.5375    0.0000 C   0  0  0  0  0  0  0  0  0  0  0  0
   -2.9633    1.5375    0.0000 O   0  0  0  0  0  0  0  0  0  0  0  0
   -3.8316    3.0362    0.0000 O   0  0  0  0  0  0  0  0  0  0  0  0
    0.4993    2.5428    0.0000 C   0  0  0  0  0  0  0  0  0  0  0  0
    1.3645    3.0441    0.0000 O   0  0  0  0  0  0  0  0  0  0  0  0
    0.5008    1.5428    0.0000 N   0  0  0  0  0  0  0  0  0  0  0  0
   -0.3065    0.9519    0.0000 C   0  0  0  0  0  0  0  0  0  0  0  0
    0.0000    0.0000    0.0000 C   0  0  0  0  0  0  0  0  0  0  0  0
    1.0015    0.0000    0.0000 C   0  0  0  0  0  0  0  0  0  0  0  0
    1.3133    0.9519    0.0000 C   0  0  1  0  0  0  0  0  0  0  0  0
    2.2648    1.2596    0.0000 C   0  0  0  0  0  0  0  0  0  0  0  0
    3.0070    0.5894    0.0000 O   0  0  0  0  0  0  0  0  0  0  0  0
    2.4741    2.2374    0.0000 O   0  0  0  0  0  0  0  0  0  0  0  0
  1  2  1  0  0  0  0
  2  3  1  0  0  0  0
  3  4  1  0  0  0  0
  4  5  1  0  0  0  0
  6  5  1  1  0  0  0
  6  7  1  0  0  0  0
  7  8  1  0  0  0  0
  8  9  1  0  0  0  0
  9 10  1  0  0  0  0
 10 11  1  0  0  0  0
 11 16  2  0  0  0  0
 11 12  1  0  0  0  0
 12 13  2  0  0  0  0
 13 14  1  0  0  0  0
 14 15  2  0  0  0  0
 15 16  1  0  0  0  0
  8 17  1  6  0  0  0
 17 18  2  0  0  0  0
 17 19  1  0  0  0  0
  6 20  1  0  0  0  0
 20 21  2  0  0  0  0
 20 22  1  0  0  0  0
 22 26  1  0  0  0  0
 22 23  1  0  0  0  0
 23 24  1  0  0  0  0
 24 25  1  0  0  0  0
 25 26  1  0  0  0  0
 26 27  1  6  0  0  0
 27 28  2  0  0  0  0
 27 29  1  0  0  0  0
M  END
>  <Name>
Lisinopril

>  <CAS #>
76547-98-3

>  <human Clearance (mL/min/kg)>
1.2

>  <Primary mechanism (metabolic, biliary or renal)>
renal

>  <seqId>
541.0

>  <Code (mechanism and clearance degree index)>
R1

>  < Five M1 and R1 test groups>
R1_2

>  <formamide>
0

>  <prodrug phosphates>
0

>  <VolSurf_V>
918.875

>  <VolSurf_S>
620.682

>  <VolSurf_R>
1.48043

>  <VolSurf_G>
1.58242

>  <VolSurf_IW1>
0.0876748

>  <VolSurf_IW2>
0.200514

>  <VolSurf_IW3>
0.384104

>  <VolSurf_IW4>
0.547438

>  <VolSurf_ID1>
0.0628918

>  <VolSurf_ID2>
0.147812

>  <VolSurf_ID3>
0.222588

>  <VolSurf_ID4>
0.27165

>  <VolSurf_HL1>
7.68273

>  <VolSurf_HL2>
8.74419

>  <VolSurf_A>
6.68474

>  <VolSurf_CP>
0.153743

>  <VolSurf_POL>
43.314

>  <VolSurf_MW>
404.48

>  <VolSurf_FLEX>
3.20947

>  <VolSurf_FLEX_RB>
0.229248

>  <VolSurf_NCC>
3.0

>  <VolSurf_LOGP n-Oct>
0.661

>  <VolSurf_LOGP c-Hex>
-3.093

>  <VolSurf_PSA>
158.96

>  <VolSurf_HSA>
461.722

>  <VolSurf_PSAR>
0.256105

>  <VolSurf_PHSAR>
0.344276

>  <VolSurf_LgD5>
-2.37542

>  <VolSurf_LgD6>
-2.41808

>  <VolSurf_LgD7>
-2.72395

>  <VolSurf_LgD7.5>
-3.06705

>  <VolSurf_LgD8>
-3.49476

>  <VolSurf_LgD9>
-4.35661

>  <VolSurf_LgD10>
-4.8701

>  <VolSurf_AUS7.4>
0.0

>  <VolSurf_%FU4>
0.0

>  <VolSurf_%FU5>
0.0

>  <VolSurf_%FU6>
0.0

>  <VolSurf_%FU7>
0.0

>  <VolSurf_%FU8>
0.0

>  <VolSurf_%FU9>
0.0

>  <VolSurf_%FU10>
0.0

>  <ID>
266

>  <MOKAID>
267

>  <Clearance Route>
renal

>  <PC1>
-3.01246

>  <PC2>
-0.200151

$$$$
Lomefloxacin
  -OEChem-08301611272D

 25 27  0     1  0  0  0  0  0999 V2000
   -2.6114    2.5063    0.0000 N   0  0  0  0  0  0  0  0  0  0  0  0
   -1.7396    3.0063    0.0000 C   0  0  1  0  0  0  0  0  0  0  0  0
   -1.7397    4.0063    0.0000 C   0  0  0  0  0  0  0  0  0  0  0  0
   -0.8677    2.5063    0.0000 C   0  0  0  0  0  0  0  0  0  0  0  0
   -0.8675    1.5063    0.0000 N   0  0  3  0  0  0  0  0  0  0  0  0
   -1.7306    1.0014    0.0000 C   0  0  0  0  0  0  0  0  0  0  0  0
   -2.6026    1.5014    0.0000 C   0  0  0  0  0  0  0  0  0  0  0  0
    0.0000    1.0089    0.0000 C   0  0  0  0  0  0  0  0  0  0  0  0
    0.0000    0.0000    0.0000 C   0  0  0  0  0  0  0  0  0  0  0  0
   -0.8653   -0.5013    0.0000 F   0  0  0  0  0  0  0  0  0  0  0  0
    0.8707   -0.4993    0.0000 C   0  0  0  0  0  0  0  0  0  0  0  0
    1.7371    0.0000    0.0000 C   0  0  0  0  0  0  0  0  0  0  0  0
    2.6039   -0.5053    0.0000 C   0  0  0  0  0  0  0  0  0  0  0  0
    3.4805   -0.0073    0.0000 C   0  0  0  0  0  0  0  0  0  0  0  0
    3.4848    1.0014    0.0000 C   0  0  0  0  0  0  0  0  0  0  0  0
    2.6125    1.5125    0.0000 N   0  0  0  0  0  0  0  0  0  0  0  0
    1.7414    1.0089    0.0000 C   0  0  0  0  0  0  0  0  0  0  0  0
    0.8707    1.5185    0.0000 C   0  0  0  0  0  0  0  0  0  0  0  0
    0.8707    2.5185    0.0000 F   0  0  0  0  0  0  0  0  0  0  0  0
    2.6154    2.5125    0.0000 C   0  0  0  0  0  0  0  0  0  0  0  0
    1.7508    3.0150    0.0000 C   0  0  0  0  0  0  0  0  0  0  0  0
    4.3437   -0.5122    0.0000 C   0  0  0  0  0  0  0  0  0  0  0  0
    5.2125   -0.0170    0.0000 O   0  0  0  0  0  0  0  0  0  0  0  0
    4.3381   -1.5121    0.0000 O   0  0  0  0  0  0  0  0  0  0  0  0
    2.5983   -1.5053    0.0000 O   0  0  0  0  0  0  0  0  0  0  0  0
  1  7  1  0  0  0  0
  1  2  1  0  0  0  0
  2  3  1  1  0  0  0
  2  4  1  0  0  0  0
  4  5  1  0  0  0  0
  5  6  1  0  0  0  0
  6  7  1  0  0  0  0
  5  8  1  0  0  0  0
  8 18  2  0  0  0  0
  8  9  1  0  0  0  0
  9 10  1  0  0  0  0
  9 11  2  0  0  0  0
 11 12  1  0  0  0  0
 12 17  2  0  0  0  0
 12 13  1  0  0  0  0
 13 14  1  0  0  0  0
 14 15  2  0  0  0  0
 15 16  1  0  0  0  0
 16 17  1  0  0  0  0
 17 18  1  0  0  0  0
 18 19  1  0  0  0  0
 16 20  1  0  0  0  0
 20 21  1  0  0  0  0
 14 22  1  0  0  0  0
 22 23  1  0  0  0  0
 22 24  2  0  0  0  0
 13 25  2  0  0  0  0
M  END
>  <Name>
Lomefloxacin

>  <CAS #>
98079-51-7

>  <human Clearance (mL/min/kg)>
3.98

>  <Primary mechanism (metabolic, biliary or renal)>
renal

>  <seqId>
542.0

>  <Code (mechanism and clearance degree index)>
R1

>  < Five M1 and R1 test groups>
R1_5

>  <formamide>
0

>  <prodrug phosphates>
0

>  <VolSurf_V>
709.75

>  <VolSurf_S>
483.691

>  <VolSurf_R>
1.46736

>  <VolSurf_G>
1.40936

>  <VolSurf_IW1>
0.127023

>  <VolSurf_IW2>
0.269056

>  <VolSurf_IW3>
0.716148

>  <VolSurf_IW4>
1.65732

>  <VolSurf_ID1>
0.0257195

>  <VolSurf_ID2>
0.0384895

>  <VolSurf_ID3>
0.046831

>  <VolSurf_ID4>
0.0671889

>  <VolSurf_HL1>
6.73988

>  <VolSurf_HL2>
4.30081

>  <VolSurf_A>
2.99316

>  <VolSurf_CP>
0.817924

>  <VolSurf_POL>
34.936

>  <VolSurf_MW>
351.348

>  <VolSurf_FLEX>
0.374289

>  <VolSurf_FLEX_RB>
0.0748577

>  <VolSurf_NCC>
2.0

>  <VolSurf_LOGP n-Oct>
2.449

>  <VolSurf_LOGP c-Hex>
-1.794

>  <VolSurf_PSA>
103.59

>  <VolSurf_HSA>
380.101

>  <VolSurf_PSAR>
0.214166

>  <VolSurf_PHSAR>
0.272533

>  <VolSurf_LgD5>
-0.972654

>  <VolSurf_LgD6>
-0.511528

>  <VolSurf_LgD7>
-0.34444

>  <VolSurf_LgD7.5>
-0.345781

>  <VolSurf_LgD8>
-0.384229

>  <VolSurf_LgD9>
-0.504842

>  <VolSurf_LgD10>
-0.54454

>  <VolSurf_AUS7.4>
0.0

>  <VolSurf_%FU4>
0.0

>  <VolSurf_%FU5>
0.0

>  <VolSurf_%FU6>
0.0

>  <VolSurf_%FU7>
0.0

>  <VolSurf_%FU8>
0.0

>  <VolSurf_%FU9>
0.0

>  <VolSurf_%FU10>
0.0

>  <ID>
267

>  <MOKAID>
268

>  <Clearance Route>
uncertain

>  <PC1>
-0.45227

>  <PC2>
1.00689

$$$$
Lorazepam
  -OEChem-08301611272D

 21 23  0     1  0  0  0  0  0999 V2000
    4.6973    1.6359    0.0000 O   0  0  0  0  0  0  0  0  0  0  0  0
    3.7246    1.4039    0.0000 C   0  0  3  0  0  0  0  0  0  0  0  0
    3.5069    0.4226    0.0000 N   0  0  0  0  0  0  0  0  0  0  0  0
    2.6022   -0.0243    0.0000 C   0  0  0  0  0  0  0  0  0  0  0  0
    2.6132   -1.0242    0.0000 C   0  0  0  0  0  0  0  0  0  0  0  0
    1.7535   -1.5350    0.0000 C   0  0  0  0  0  0  0  0  0  0  0  0
    1.7601   -2.5350    0.0000 C   0  0  0  0  0  0  0  0  0  0  0  0
    2.6354   -3.0293    0.0000 C   0  0  0  0  0  0  0  0  0  0  0  0
    3.5040   -2.5235    0.0000 C   0  0  0  0  0  0  0  0  0  0  0  0
    3.4885   -1.5185    0.0000 C   0  0  0  0  0  0  0  0  0  0  0  0
    4.3482   -1.0077    0.0000 Cl  0  0  0  0  0  0  0  0  0  0  0  0
    1.6906    0.4013    0.0000 C   0  0  0  0  0  0  0  0  0  0  0  0
    0.9648   -0.2906    0.0000 C   0  0  0  0  0  0  0  0  0  0  0  0
    0.0000    0.0000    0.0000 C   0  0  0  0  0  0  0  0  0  0  0  0
   -0.7278   -0.6857    0.0000 Cl  0  0  0  0  0  0  0  0  0  0  0  0
   -0.2322    0.9784    0.0000 C   0  0  0  0  0  0  0  0  0  0  0  0
    0.5003    1.6662    0.0000 C   0  0  0  0  0  0  0  0  0  0  0  0
    1.4584    1.3796    0.0000 C   0  0  0  0  0  0  0  0  0  0  0  0
    2.0794    2.1743    0.0000 N   0  0  0  0  0  0  0  0  0  0  0  0
    3.0873    2.1814    0.0000 C   0  0  0  0  0  0  0  0  0  0  0  0
    3.5119    3.0868    0.0000 O   0  0  0  0  0  0  0  0  0  0  0  0
  1  2  1  0  0  0  0
  2 20  1  0  0  0  0
  2  3  1  0  0  0  0
  3  4  2  0  0  0  0
  4  5  1  0  0  0  0
  5 10  2  0  0  0  0
  5  6  1  0  0  0  0
  6  7  2  0  0  0  0
  7  8  1  0  0  0  0
  8  9  2  0  0  0  0
  9 10  1  0  0  0  0
 10 11  1  0  0  0  0
  4 12  1  0  0  0  0
 12 18  2  0  0  0  0
 12 13  1  0  0  0  0
 13 14  2  0  0  0  0
 14 15  1  0  0  0  0
 14 16  1  0  0  0  0
 16 17  2  0  0  0  0
 17 18  1  0  0  0  0
 18 19  1  0  0  0  0
 19 20  1  0  0  0  0
 20 21  2  0  0  0  0
M  END
>  <Name>
Lorazepam

>  <CAS #>
846-49-1

>  <human Clearance (mL/min/kg)>
1.0

>  <Primary mechanism (metabolic, biliary or renal)>
metabolic

>  <seqId>
543.0

>  <Code (mechanism and clearance degree index)>
M1

>  < Five M1 and R1 test groups>
M1_1

>  <formamide>
0

>  <prodrug phosphates>
0

>  <VolSurf_V>
629.5

>  <VolSurf_S>
436.256

>  <VolSurf_R>
1.44296

>  <VolSurf_G>
1.3611

>  <VolSurf_IW1>
0.142171

>  <VolSurf_IW2>
0.472741

>  <VolSurf_IW3>
1.03167

>  <VolSurf_IW4>
1.44221

>  <VolSurf_ID1>
0.0609412

>  <VolSurf_ID2>
0.0838225

>  <VolSurf_ID3>
0.103515

>  <VolSurf_ID4>
0.118149

>  <VolSurf_HL1>
1.12642

>  <VolSurf_HL2>
0.966321

>  <VolSurf_A>
6.20586

>  <VolSurf_CP>
2.09015

>  <VolSurf_POL>
31.524

>  <VolSurf_MW>
321.157

>  <VolSurf_FLEX>
0.416891

>  <VolSurf_FLEX_RB>
0.208446

>  <VolSurf_NCC>
0.0

>  <VolSurf_LOGP n-Oct>
2.924

>  <VolSurf_LOGP c-Hex>
1.756

>  <VolSurf_PSA>
61.96

>  <VolSurf_HSA>
374.296

>  <VolSurf_PSAR>
0.142027

>  <VolSurf_PHSAR>
0.165538

>  <VolSurf_LgD5>
2.92397

>  <VolSurf_LgD6>
2.92389

>  <VolSurf_LgD7>
2.92292

>  <VolSurf_LgD7.5>
2.92061

>  <VolSurf_LgD8>
2.91336

>  <VolSurf_LgD9>
2.82717

>  <VolSurf_LgD10>
2.35904

>  <VolSurf_AUS7.4>
2.0

>  <VolSurf_%FU4>
99.952

>  <VolSurf_%FU5>
99.9927

>  <VolSurf_%FU6>
99.9747

>  <VolSurf_%FU7>
99.7526

>  <VolSurf_%FU8>
97.5789

>  <VolSurf_%FU9>
80.0078

>  <VolSurf_%FU10>
27.208

>  <ID>
268

>  <MOKAID>
269

>  <Clearance Route>
metabolic

>  <PC1>
4.54737

>  <PC2>
2.09258

$$$$
Lorcainide
  -OEChem-08301611272D

 26 28  0     0  0  0  0  0  0999 V2000
   -0.8660    3.5104    0.0000 C   0  0  0  0  0  0  0  0  0  0  0  0
   -0.0000    3.0104    0.0000 C   0  0  0  0  0  0  0  0  0  0  0  0
    0.8660    3.5104    0.0000 C   0  0  0  0  0  0  0  0  0  0  0  0
   -0.0000    2.0104    0.0000 N   0  0  0  0  0  0  0  0  0  0  0  0
   -0.8675    1.5027    0.0000 C   0  0  0  0  0  0  0  0  0  0  0  0
   -0.8675    0.4975    0.0000 C   0  0  0  0  0  0  0  0  0  0  0  0
    0.0000    0.0000    0.0000 C   0  0  0  0  0  0  0  0  0  0  0  0
    0.8675    0.4975    0.0000 C   0  0  0  0  0  0  0  0  0  0  0  0
    0.8675    1.5027    0.0000 C   0  0  0  0  0  0  0  0  0  0  0  0
    0.0000   -1.0000    0.0000 N   0  0  0  0  0  0  0  0  0  0  0  0
    0.8660   -1.5000    0.0000 C   0  0  0  0  0  0  0  0  0  0  0  0
    0.8660   -2.5000    0.0000 O   0  0  0  0  0  0  0  0  0  0  0  0
    1.7321   -1.0000    0.0000 C   0  0  0  0  0  0  0  0  0  0  0  0
    2.5981   -1.5000    0.0000 C   0  0  0  0  0  0  0  0  0  0  0  0
    3.4671   -0.9948    0.0000 C   0  0  0  0  0  0  0  0  0  0  0  0
    4.3332   -1.4948    0.0000 C   0  0  0  0  0  0  0  0  0  0  0  0
    4.3390   -2.4948    0.0000 C   0  0  0  0  0  0  0  0  0  0  0  0
    3.4700   -3.0000    0.0000 C   0  0  0  0  0  0  0  0  0  0  0  0
    2.5951   -2.5051    0.0000 C   0  0  0  0  0  0  0  0  0  0  0  0
   -0.8660   -1.5000    0.0000 C   0  0  0  0  0  0  0  0  0  0  0  0
   -0.8631   -2.5052    0.0000 C   0  0  0  0  0  0  0  0  0  0  0  0
   -1.7291   -3.0053    0.0000 C   0  0  0  0  0  0  0  0  0  0  0  0
   -2.5981   -2.5103    0.0000 C   0  0  0  0  0  0  0  0  0  0  0  0
   -3.4619   -3.0141    0.0000 Cl  0  0  0  0  0  0  0  0  0  0  0  0
   -2.6010   -1.5051    0.0000 C   0  0  0  0  0  0  0  0  0  0  0  0
   -1.7350   -0.9949    0.0000 C   0  0  0  0  0  0  0  0  0  0  0  0
  1  2  1  0  0  0  0
  2  3  1  0  0  0  0
  2  4  1  0  0  0  0
  4  9  1  0  0  0  0
  4  5  1  0  0  0  0
  5  6  1  0  0  0  0
  6  7  1  0  0  0  0
  7  8  1  0  0  0  0
  8  9  1  0  0  0  0
  7 10  1  0  0  0  0
 10 11  1  0  0  0  0
 11 12  2  0  0  0  0
 11 13  1  0  0  0  0
 13 14  1  0  0  0  0
 14 19  2  0  0  0  0
 14 15  1  0  0  0  0
 15 16  2  0  0  0  0
 16 17  1  0  0  0  0
 17 18  2  0  0  0  0
 18 19  1  0  0  0  0
 10 20  1  0  0  0  0
 20 26  2  0  0  0  0
 20 21  1  0  0  0  0
 21 22  2  0  0  0  0
 22 23  1  0  0  0  0
 23 24  1  0  0  0  0
 23 25  2  0  0  0  0
 25 26  1  0  0  0  0
M  END
>  <Name>
Lorcainide

>  <CAS #>
59729-31-6

>  <human Clearance (mL/min/kg)>
16.0

>  <Primary mechanism (metabolic, biliary or renal)>
metabolic

>  <seqId>
544.0

>  <Code (mechanism and clearance degree index)>
M1

>  < Five M1 and R1 test groups>
M1_3

>  <formamide>
0

>  <prodrug phosphates>
0

>  <VolSurf_V>
891.125

>  <VolSurf_S>
590.836

>  <VolSurf_R>
1.50824

>  <VolSurf_G>
1.51543

>  <VolSurf_IW1>
0.0308423

>  <VolSurf_IW2>
0.22322

>  <VolSurf_IW3>
0.559366

>  <VolSurf_IW4>
0.854011

>  <VolSurf_ID1>
0.0135413

>  <VolSurf_ID2>
0.0565103

>  <VolSurf_ID3>
0.0427355

>  <VolSurf_ID4>
0.0609588

>  <VolSurf_HL1>
0.494624

>  <VolSurf_HL2>
0.535714

>  <VolSurf_A>
3.95626

>  <VolSurf_CP>
3.26792

>  <VolSurf_POL>
44.144

>  <VolSurf_MW>
371.923

>  <VolSurf_FLEX>
1.88812

>  <VolSurf_FLEX_RB>
0.236015

>  <VolSurf_NCC>
1.0

>  <VolSurf_LOGP n-Oct>
4.864

>  <VolSurf_LOGP c-Hex>
5.139

>  <VolSurf_PSA>
31.49

>  <VolSurf_HSA>
559.346

>  <VolSurf_PSAR>
0.0532974

>  <VolSurf_PHSAR>
0.0562979

>  <VolSurf_LgD5>
1.43289

>  <VolSurf_LgD6>
1.79825

>  <VolSurf_LgD7>
2.6216

>  <VolSurf_LgD7.5>
3.09991

>  <VolSurf_LgD8>
3.57893

>  <VolSurf_LgD9>
4.41108

>  <VolSurf_LgD10>
4.79071

>  <VolSurf_AUS7.4>
0.311213

>  <VolSurf_%FU4>
5.43753E-4

>  <VolSurf_%FU5>
0.00543726

>  <VolSurf_%FU6>
0.054346

>  <VolSurf_%FU7>
0.540815

>  <VolSurf_%FU8>
5.15714

>  <VolSurf_%FU9>
35.2229

>  <VolSurf_%FU10>
84.4662

>  <ID>
269

>  <MOKAID>
270

>  <Clearance Route>
metabolic

>  <PC1>
3.41439

>  <PC2>
-2.30108

$$$$
Lormetazepam
  -OEChem-08301611272D

 22 24  0     1  0  0  0  0  0999 V2000
    1.6379    3.0716    0.0000 C   0  0  0  0  0  0  0  0  0  0  0  0
    2.0794    2.1743    0.0000 N   0  0  0  0  0  0  0  0  0  0  0  0
    3.0873    2.1814    0.0000 C   0  0  0  0  0  0  0  0  0  0  0  0
    3.5119    3.0868    0.0000 O   0  0  0  0  0  0  0  0  0  0  0  0
    3.7246    1.4039    0.0000 C   0  0  3  0  0  0  0  0  0  0  0  0
    4.6973    1.6359    0.0000 O   0  0  0  0  0  0  0  0  0  0  0  0
    3.5069    0.4226    0.0000 N   0  0  0  0  0  0  0  0  0  0  0  0
    2.6022   -0.0243    0.0000 C   0  0  0  0  0  0  0  0  0  0  0  0
    2.6132   -1.0242    0.0000 C   0  0  0  0  0  0  0  0  0  0  0  0
    1.7535   -1.5350    0.0000 C   0  0  0  0  0  0  0  0  0  0  0  0
    1.7601   -2.5350    0.0000 C   0  0  0  0  0  0  0  0  0  0  0  0
    2.6354   -3.0293    0.0000 C   0  0  0  0  0  0  0  0  0  0  0  0
    3.5040   -2.5235    0.0000 C   0  0  0  0  0  0  0  0  0  0  0  0
    3.4885   -1.5185    0.0000 C   0  0  0  0  0  0  0  0  0  0  0  0
    4.3482   -1.0077    0.0000 Cl  0  0  0  0  0  0  0  0  0  0  0  0
    1.6906    0.4013    0.0000 C   0  0  0  0  0  0  0  0  0  0  0  0
    0.9648   -0.2906    0.0000 C   0  0  0  0  0  0  0  0  0  0  0  0
    0.0000    0.0000    0.0000 C   0  0  0  0  0  0  0  0  0  0  0  0
   -0.7278   -0.6857    0.0000 Cl  0  0  0  0  0  0  0  0  0  0  0  0
   -0.2322    0.9784    0.0000 C   0  0  0  0  0  0  0  0  0  0  0  0
    0.5003    1.6662    0.0000 C   0  0  0  0  0  0  0  0  0  0  0  0
    1.4584    1.3796    0.0000 C   0  0  0  0  0  0  0  0  0  0  0  0
  1  2  1  0  0  0  0
  2 22  1  0  0  0  0
  2  3  1  0  0  0  0
  3  4  2  0  0  0  0
  3  5  1  0  0  0  0
  5  6  1  0  0  0  0
  5  7  1  0  0  0  0
  7  8  2  0  0  0  0
  8  9  1  0  0  0  0
  9 14  2  0  0  0  0
  9 10  1  0  0  0  0
 10 11  2  0  0  0  0
 11 12  1  0  0  0  0
 12 13  2  0  0  0  0
 13 14  1  0  0  0  0
 14 15  1  0  0  0  0
  8 16  1  0  0  0  0
 16 22  2  0  0  0  0
 16 17  1  0  0  0  0
 17 18  2  0  0  0  0
 18 19  1  0  0  0  0
 18 20  1  0  0  0  0
 20 21  2  0  0  0  0
 21 22  1  0  0  0  0
M  END
>  <Name>
Lormetazepam

>  <CAS #>
848-75-9

>  <human Clearance (mL/min/kg)>
4.0

>  <Primary mechanism (metabolic, biliary or renal)>
metabolic

>  <seqId>
545.0

>  <Code (mechanism and clearance degree index)>
M1

>  < Five M1 and R1 test groups>
M1_3

>  <formamide>
0

>  <prodrug phosphates>
0

>  <VolSurf_V>
671.625

>  <VolSurf_S>
450.404

>  <VolSurf_R>
1.49116

>  <VolSurf_G>
1.33829

>  <VolSurf_IW1>
0.119621

>  <VolSurf_IW2>
0.446456

>  <VolSurf_IW3>
0.991771

>  <VolSurf_IW4>
1.36827

>  <VolSurf_ID1>
0.0517839

>  <VolSurf_ID2>
0.0772386

>  <VolSurf_ID3>
0.0920102

>  <VolSurf_ID4>
0.121601

>  <VolSurf_HL1>
0.938486

>  <VolSurf_HL2>
0.829457

>  <VolSurf_A>
6.28672

>  <VolSurf_CP>
2.3917

>  <VolSurf_POL>
33.359

>  <VolSurf_MW>
335.184

>  <VolSurf_FLEX>
0.40006

>  <VolSurf_FLEX_RB>
0.133353

>  <VolSurf_NCC>
0.0

>  <VolSurf_LOGP n-Oct>
2.771

>  <VolSurf_LOGP c-Hex>
2.451

>  <VolSurf_PSA>
52.94

>  <VolSurf_HSA>
397.464

>  <VolSurf_PSAR>
0.117539

>  <VolSurf_PHSAR>
0.133194

>  <VolSurf_LgD5>
2.77097

>  <VolSurf_LgD6>
2.77077

>  <VolSurf_LgD7>
2.76875

>  <VolSurf_LgD7.5>
2.76392

>  <VolSurf_LgD8>
2.749

>  <VolSurf_LgD9>
2.58927

>  <VolSurf_LgD10>
1.97942

>  <VolSurf_AUS7.4>
1.99743

>  <VolSurf_%FU4>
99.9777

>  <VolSurf_%FU5>
99.9926

>  <VolSurf_%FU6>
99.9478

>  <VolSurf_%FU7>
99.4828

>  <VolSurf_%FU8>
95.0583

>  <VolSurf_%FU9>
65.7958

>  <VolSurf_%FU10>
16.1328

>  <ID>
270

>  <MOKAID>
271

>  <Clearance Route>
metabolic

>  <PC1>
4.4633199999999995

>  <PC2>
1.6758099999999998

$$$$
LY2090314
  -OEChem-08301611272D

 40 46  0     1  0  0  0  0  0999 V2000
    5.1524    2.0675    0.0000 C   0  0  0  0  0  0  0  0  0  0  0  0
    4.5645    1.2585    0.0000 C   0  0  0  0  0  0  0  0  0  0  0  0
    4.8735    0.3074    0.0000 C   0  0  0  0  0  0  0  0  0  0  0  0
    5.8241   -0.0029    0.0000 C   0  0  0  0  0  0  0  0  0  0  0  0
    5.8289   -1.0034    0.0000 N   0  0  0  0  0  0  0  0  0  0  0  0
    4.8736   -1.3146    0.0000 C   0  0  0  0  0  0  0  0  0  0  0  0
    4.2858   -0.5035    0.0000 C   0  0  0  0  0  0  0  0  0  0  0  0
    3.2858   -0.5036    0.0000 C   0  0  0  0  0  0  0  0  0  0  0  0
    2.6938   -1.3184    0.0000 N   0  0  0  0  0  0  0  0  0  0  0  0
    1.7360   -1.0071    0.0000 C   0  0  0  0  0  0  0  0  0  0  0  0
    1.7360    0.0000    0.0000 N   0  0  0  0  0  0  0  0  0  0  0  0
    0.8680    0.5079    0.0000 C   0  0  0  0  0  0  0  0  0  0  0  0
   -0.0000    0.0000    0.0000 C   0  0  0  0  0  0  0  0  0  0  0  0
   -0.0000   -1.0058    0.0000 C   0  0  0  0  0  0  0  0  0  0  0  0
    0.8680   -1.5037    0.0000 C   0  0  0  0  0  0  0  0  0  0  0  0
    2.6938    0.3110    0.0000 C   0  0  0  0  0  0  0  0  0  0  0  0
    4.5645   -2.2656    0.0000 O   0  0  0  0  0  0  0  0  0  0  0  0
    6.6321    0.5862    0.0000 O   0  0  0  0  0  0  0  0  0  0  0  0
    4.5646    2.8765    0.0000 C   0  0  1  0  0  0  0  0  0  0  0  0
    3.6136    2.5676    0.0000 N   0  0  3  0  0  0  0  0  0  0  0  0
    3.6135    1.5676    0.0000 C   0  0  0  0  0  0  0  0  0  0  0  0
    2.7790    3.1186    0.0000 C   0  0  0  0  0  0  0  0  0  0  0  0
    4.9714    3.7901    0.0000 C   0  0  1  0  0  0  0  0  0  0  0  0
    5.9660    3.8945    0.0000 C   0  0  0  0  0  0  0  0  0  0  0  0
    6.5537    3.0854    0.0000 C   0  0  0  0  0  0  0  0  0  0  0  0
    6.1469    2.1719    0.0000 C   0  0  0  0  0  0  0  0  0  0  0  0
    7.5482    3.1899    0.0000 F   0  0  0  0  0  0  0  0  0  0  0  0
    4.4033    4.6712    0.0000 C   0  0  0  0  0  0  0  0  0  0  0  0
    3.4123    4.8055    0.0000 N   0  0  0  0  0  0  0  0  0  0  0  0
    2.6895    4.1145    0.0000 C   0  0  0  0  0  0  0  0  0  0  0  0
    3.1034    5.7566    0.0000 C   0  0  0  0  0  0  0  0  0  0  0  0
    2.1252    5.9646    0.0000 O   0  0  0  0  0  0  0  0  0  0  0  0
    3.7726    6.4997    0.0000 N   0  0  0  0  0  0  0  0  0  0  0  0
    3.4677    7.4575    0.0000 C   0  0  0  0  0  0  0  0  0  0  0  0
    4.1403    8.2045    0.0000 C   0  0  0  0  0  0  0  0  0  0  0  0
    5.1179    7.9936    0.0000 C   0  0  0  0  0  0  0  0  0  0  0  0
    5.4296    7.0434    0.0000 C   0  0  0  0  0  0  0  0  0  0  0  0
    4.7569    6.2965    0.0000 C   0  0  0  0  0  0  0  0  0  0  0  0
    4.2555    1.9255    0.0000 H   0  0  0  0  0  0  0  0  0  0  0  0
    5.4035    4.6919    0.0000 H   0  0  0  0  0  0  0  0  0  0  0  0
  1 26  2  0  0  0  0
  1  2  1  0  0  0  0
  2 21  2  0  0  0  0
  2  3  1  0  0  0  0
  3  7  2  0  0  0  0
  3  4  1  0  0  0  0
  4  5  1  0  0  0  0
  5  6  1  0  0  0  0
  6  7  1  0  0  0  0
  7  8  1  0  0  0  0
  8  9  1  0  0  0  0
  9 10  2  0  0  0  0
 10 11  1  0  0  0  0
 11 16  1  0  0  0  0
 11 12  1  0  0  0  0
 12 13  2  0  0  0  0
 13 14  1  0  0  0  0
 14 15  2  0  0  0  0
 10 15  1  0  0  0  0
  8 16  2  0  0  0  0
  6 17  2  0  0  0  0
  4 18  2  0  0  0  0
  1 19  1  0  0  0  0
 19 20  1  0  0  0  0
 20 21  1  0  0  0  0
 20 22  1  0  0  0  0
 22 30  1  0  0  0  0
 19 23  1  0  0  0  0
 23 24  1  0  0  0  0
 24 25  2  0  0  0  0
 25 26  1  0  0  0  0
 25 27  1  0  0  0  0
 23 28  1  0  0  0  0
 28 29  1  0  0  0  0
 29 30  1  0  0  0  0
 29 31  1  0  0  0  0
 31 32  2  0  0  0  0
 31 33  1  0  0  0  0
 33 34  1  0  0  0  0
 34 35  1  0  0  0  0
 35 36  1  0  0  0  0
 36 37  1  0  0  0  0
 37 38  1  0  0  0  0
 33 38  1  0  0  0  0
 19 39  1  6  0  0  0
 23 40  1  1  0  0  0
M  END
>  <Name>
LY2090314

>  <CAS #>
603288-22-8

>  <human Clearance (mL/min/kg)>
10.3

>  <Primary mechanism (metabolic, biliary or renal)>
metabolic

>  <seqId>
551.0

>  <Code (mechanism and clearance degree index)>
M1

>  < Five M1 and R1 test groups>
M1_1

>  <formamide>
0

>  <prodrug phosphates>
0

>  <VolSurf_V>
1019.12

>  <VolSurf_S>
671.576

>  <VolSurf_R>
1.51751

>  <VolSurf_G>
1.60579

>  <VolSurf_IW1>
0.0752176

>  <VolSurf_IW2>
0.175496

>  <VolSurf_IW3>
0.369948

>  <VolSurf_IW4>
0.559049

>  <VolSurf_ID1>
0.0259079

>  <VolSurf_ID2>
0.0617094

>  <VolSurf_ID3>
0.107195

>  <VolSurf_ID4>
0.158635

>  <VolSurf_HL1>
2.4875

>  <VolSurf_HL2>
1.80441

>  <VolSurf_A>
2.57204

>  <VolSurf_CP>
1.05505

>  <VolSurf_POL>
52.879

>  <VolSurf_MW>
514.551

>  <VolSurf_FLEX>
1.97537

>  <VolSurf_FLEX_RB>
0.493842

>  <VolSurf_NCC>
0.0

>  <VolSurf_LOGP n-Oct>
3.514

>  <VolSurf_LOGP c-Hex>
-1.469

>  <VolSurf_PSA>
93.54

>  <VolSurf_HSA>
578.036

>  <VolSurf_PSAR>
0.139284

>  <VolSurf_PHSAR>
0.161824

>  <VolSurf_LgD5>
3.39295

>  <VolSurf_LgD6>
3.50024

>  <VolSurf_LgD7>
3.5124

>  <VolSurf_LgD7.5>
3.5129

>  <VolSurf_LgD8>
3.51179

>  <VolSurf_LgD9>
3.49366

>  <VolSurf_LgD10>
3.34403

>  <VolSurf_AUS7.4>
2.0

>  <VolSurf_%FU4>
23.7188

>  <VolSurf_%FU5>
75.6661

>  <VolSurf_%FU6>
96.8798

>  <VolSurf_%FU7>
99.6318

>  <VolSurf_%FU8>
99.4912

>  <VolSurf_%FU9>
95.4238

>  <VolSurf_%FU10>
67.602

>  <ID>
271

>  <MOKAID>
272

>  <Clearance Route>
metabolic

>  <PC1>
3.8861

>  <PC2>
-2.37299

$$$$
Mannitol
  -OEChem-08301611272D

 12 11  0     1  0  0  0  0  0999 V2000
    0.0000    0.0000    0.0000 O   0  0  0  0  0  0  0  0  0  0  0  0
    1.0000    0.0000    0.0000 C   0  0  1  0  0  0  0  0  0  0  0  0
    1.5000    0.8660    0.0000 C   0  0  1  0  0  0  0  0  0  0  0  0
    1.0000    1.7321    0.0000 C   0  0  1  0  0  0  0  0  0  0  0  0
    1.5000    2.5981    0.0000 C   0  0  0  0  0  0  0  0  0  0  0  0
    1.0000    3.4641    0.0000 O   0  0  0  0  0  0  0  0  0  0  0  0
    0.0000    1.7321    0.0000 O   0  0  0  0  0  0  0  0  0  0  0  0
    2.5000    0.8660    0.0000 O   0  0  0  0  0  0  0  0  0  0  0  0
    1.5000   -0.8660    0.0000 C   0  0  1  0  0  0  0  0  0  0  0  0
    1.0000   -1.7321    0.0000 C   0  0  0  0  0  0  0  0  0  0  0  0
    1.5000   -2.5981    0.0000 O   0  0  0  0  0  0  0  0  0  0  0  0
    2.5000   -0.8660    0.0000 O   0  0  0  0  0  0  0  0  0  0  0  0
  2  1  1  1  0  0  0
  2  3  1  0  0  0  0
  3  4  1  0  0  0  0
  4  5  1  0  0  0  0
  5  6  1  0  0  0  0
  4  7  1  6  0  0  0
  3  8  1  1  0  0  0
  2  9  1  0  0  0  0
  9 10  1  0  0  0  0
 10 11  1  0  0  0  0
  9 12  1  6  0  0  0
M  END
>  <Name>
Mannitol

>  <CAS #>
69-65-8

>  <human Clearance (mL/min/kg)>
1.2

>  <Primary mechanism (metabolic, biliary or renal)>
renal

>  <seqId>
552.0

>  <Code (mechanism and clearance degree index)>
R1

>  < Five M1 and R1 test groups>
R1_3

>  <formamide>
0

>  <prodrug phosphates>
0

>  <VolSurf_V>
371.0

>  <VolSurf_S>
291.303

>  <VolSurf_R>
1.27359

>  <VolSurf_G>
1.26013

>  <VolSurf_IW1>
0.00788358

>  <VolSurf_IW2>
0.0125525

>  <VolSurf_IW3>
0.0254159

>  <VolSurf_IW4>
0.167216

>  <VolSurf_ID1>
0.0

>  <VolSurf_ID2>
0.0

>  <VolSurf_ID3>
0.0

>  <VolSurf_ID4>
0.0

>  <VolSurf_HL1>
416.25

>  <VolSurf_HL2>
229.25

>  <VolSurf_A>
0.0

>  <VolSurf_CP>
0.0

>  <VolSurf_POL>
15.606

>  <VolSurf_MW>
182.172

>  <VolSurf_FLEX>
1.32139

>  <VolSurf_FLEX_RB>
0.120127

>  <VolSurf_NCC>
0.0

>  <VolSurf_LOGP n-Oct>
-3.64

>  <VolSurf_LOGP c-Hex>
-9.0

>  <VolSurf_PSA>
121.38

>  <VolSurf_HSA>
169.923

>  <VolSurf_PSAR>
0.41668

>  <VolSurf_PHSAR>
0.714325

>  <VolSurf_LgD5>
-3.64

>  <VolSurf_LgD6>
-3.64

>  <VolSurf_LgD7>
-3.64

>  <VolSurf_LgD7.5>
-3.64

>  <VolSurf_LgD8>
-3.64

>  <VolSurf_LgD9>
-3.64004

>  <VolSurf_LgD10>
-3.64038

>  <VolSurf_AUS7.4>
2.0

>  <VolSurf_%FU4>
100.0

>  <VolSurf_%FU5>
100.0

>  <VolSurf_%FU6>
100.0

>  <VolSurf_%FU7>
99.9999

>  <VolSurf_%FU8>
99.9991

>  <VolSurf_%FU9>
99.9913

>  <VolSurf_%FU10>
99.9128

>  <ID>
272

>  <MOKAID>
273

>  <Clearance Route>
renal

>  <PC1>
-3.2896900000000002

>  <PC2>
2.10114

$$$$
Maprotiline
  -OEChem-08301611272D

 21 24  0     0  0  0  0  0  0999 V2000
    1.9036    6.1119    0.0000 C   0  0  0  0  0  0  0  0  0  0  0  0
    1.9036    5.1119    0.0000 N   0  0  0  0  0  0  0  0  0  0  0  0
    2.7696    4.6119    0.0000 C   0  0  0  0  0  0  0  0  0  0  0  0
    2.7696    3.6119    0.0000 C   0  0  0  0  0  0  0  0  0  0  0  0
    3.6356    3.1119    0.0000 C   0  0  0  0  0  0  0  0  0  0  0  0
    3.6356    2.1119    0.0000 C   0  0  0  0  0  0  0  0  0  0  0  0
    4.4159    1.3678    0.0000 C   0  0  0  0  0  0  0  0  0  0  0  0
    4.3877   -0.0354    0.0000 C   0  0  0  0  0  0  0  0  0  0  0  0
    3.6356   -0.6944    0.0000 C   0  0  0  0  0  0  0  0  0  0  0  0
    2.4246   -0.0000    0.0000 C   0  0  0  0  0  0  0  0  0  0  0  0
    1.2160   -0.7053    0.0000 C   0  0  0  0  0  0  0  0  0  0  0  0
    0.0000    0.0000    0.0000 C   0  0  0  0  0  0  0  0  0  0  0  0
    0.0000    1.4032    0.0000 C   0  0  0  0  0  0  0  0  0  0  0  0
    1.2160    2.1010    0.0000 C   0  0  0  0  0  0  0  0  0  0  0  0
    2.4246    1.4032    0.0000 C   0  0  0  0  0  0  0  0  0  0  0  0
    4.8406   -0.0000    0.0000 C   0  0  0  0  0  0  0  0  0  0  0  0
    6.0461   -0.7026    0.0000 C   0  0  0  0  0  0  0  0  0  0  0  0
    7.2653   -0.0100    0.0000 C   0  0  0  0  0  0  0  0  0  0  0  0
    7.2710    1.3930    0.0000 C   0  0  0  0  0  0  0  0  0  0  0  0
    6.0579    2.1036    0.0000 C   0  0  0  0  0  0  0  0  0  0  0  0
    4.8466    1.4032    0.0000 C   0  0  0  0  0  0  0  0  0  0  0  0
  1  2  1  0  0  0  0
  2  3  1  0  0  0  0
  3  4  1  0  0  0  0
  4  5  1  0  0  0  0
  5  6  1  0  0  0  0
  6 15  1  0  0  0  0
  6 21  1  0  0  0  0
  6  7  1  0  0  0  0
  7  8  1  0  0  0  0
  8  9  1  0  0  0  0
  9 10  1  0  0  0  0
 10 15  2  0  0  0  0
 10 11  1  0  0  0  0
 11 12  2  0  0  0  0
 12 13  1  0  0  0  0
 13 14  2  0  0  0  0
 14 15  1  0  0  0  0
  9 16  1  0  0  0  0
 16 21  2  0  0  0  0
 16 17  1  0  0  0  0
 17 18  2  0  0  0  0
 18 19  1  0  0  0  0
 19 20  2  0  0  0  0
 20 21  1  0  0  0  0
M  END
>  <Name>
Maprotiline

>  <CAS #>
10262-69-8

>  <human Clearance (mL/min/kg)>
14.0

>  <Primary mechanism (metabolic, biliary or renal)>
metabolic

>  <seqId>
553.0

>  <Code (mechanism and clearance degree index)>
M1

>  < Five M1 and R1 test groups>
M1_5

>  <formamide>
0

>  <prodrug phosphates>
0

>  <VolSurf_V>
702.75

>  <VolSurf_S>
458.118

>  <VolSurf_R>
1.53399

>  <VolSurf_G>
1.31202

>  <VolSurf_IW1>
0.0331608

>  <VolSurf_IW2>
0.344212

>  <VolSurf_IW3>
0.994572

>  <VolSurf_IW4>
1.23537

>  <VolSurf_ID1>
0.0329521

>  <VolSurf_ID2>
0.0822579

>  <VolSurf_ID3>
0.145795

>  <VolSurf_ID4>
0.202587

>  <VolSurf_HL1>
0.205607

>  <VolSurf_HL2>
0.123932

>  <VolSurf_A>
7.06991

>  <VolSurf_CP>
5.26259

>  <VolSurf_POL>
37.5

>  <VolSurf_MW>
278.411

>  <VolSurf_FLEX>
0.738852

>  <VolSurf_FLEX_RB>
0.14777

>  <VolSurf_NCC>
1.0

>  <VolSurf_LOGP n-Oct>
4.146

>  <VolSurf_LOGP c-Hex>
4.674

>  <VolSurf_PSA>
23.58

>  <VolSurf_HSA>
434.538

>  <VolSurf_PSAR>
0.0514714

>  <VolSurf_PHSAR>
0.0542645

>  <VolSurf_LgD5>
0.484351

>  <VolSurf_LgD6>
0.663401

>  <VolSurf_LgD7>
1.30433

>  <VolSurf_LgD7.5>
1.75861

>  <VolSurf_LgD8>
2.23987

>  <VolSurf_LgD9>
3.18815

>  <VolSurf_LgD10>
3.88863

>  <VolSurf_AUS7.4>
0.00411792

>  <VolSurf_%FU4>
1.23607E-4

>  <VolSurf_%FU5>
0.00123606

>  <VolSurf_%FU6>
0.0123592

>  <VolSurf_%FU7>
0.123455

>  <VolSurf_%FU8>
1.22098

>  <VolSurf_%FU9>
11.0009

>  <VolSurf_%FU10>
55.2788

>  <ID>
273

>  <MOKAID>
274

>  <Clearance Route>
metabolic

>  <PC1>
2.9813

>  <PC2>
0.9675450000000001

$$$$
Maraviroc
  -OEChem-08301611272D

 39 43  0     1  0  0  0  0  0999 V2000
   -2.2647    6.8146    0.0000 N   0  0  0  0  0  0  0  0  0  0  0  0
   -1.3541    6.4012    0.0000 C   0  0  0  0  0  0  0  0  0  0  0  0
   -0.5408    6.9831    0.0000 C   0  0  0  0  0  0  0  0  0  0  0  0
    0.3704    6.5710    0.0000 C   0  0  0  0  0  0  0  0  0  0  0  0
    1.1862    7.1494    0.0000 C   0  0  0  0  0  0  0  0  0  0  0  0
    1.0898    8.1499    0.0000 C   0  0  0  0  0  0  0  0  0  0  0  0
    0.1777    8.5722    0.0000 C   0  0  0  0  0  0  0  0  0  0  0  0
   -0.6372    7.9837    0.0000 C   0  0  0  0  0  0  0  0  0  0  0  0
    1.3440    9.1171    0.0000 F   0  0  0  0  0  0  0  0  0  0  0  0
    2.0866    8.0695    0.0000 F   0  0  0  0  0  0  0  0  0  0  0  0
   -1.2568    5.4059    0.0000 O   0  0  0  0  0  0  0  0  0  0  0  0
   -3.0779    6.2327    0.0000 C   0  0  2  0  0  0  0  0  0  0  0  0
   -2.9807    5.2374    0.0000 C   0  0  0  0  0  0  0  0  0  0  0  0
   -2.0701    4.8241    0.0000 C   0  0  0  0  0  0  0  0  0  0  0  0
   -1.9728    3.8288    0.0000 N   0  0  0  0  0  0  0  0  0  0  0  0
   -2.1336    1.3957    0.0000 C   0  0  1  0  0  0  0  0  0  0  0  0
   -3.6680    0.7672    0.0000 C   0  0  0  0  0  0  0  0  0  0  0  0
   -3.2953    1.6952    0.0000 C   0  0  0  0  0  0  0  0  0  0  0  0
   -1.6002    2.4331    0.0000 C   0  0  2  0  0  0  0  0  0  0  0  0
   -0.3508    1.7098    0.0000 C   0  0  0  0  0  0  0  0  0  0  0  0
    0.0000    0.0000    0.0000 C   0  0  0  0  0  0  0  0  0  0  0  0
   -0.8184    0.9864    0.0000 C   0  0  0  0  0  0  0  0  0  0  0  0
    0.4327   -0.9015    0.0000 N   0  0  0  0  0  0  0  0  0  0  0  0
   -0.0419   -1.7835    0.0000 C   0  0  0  0  0  0  0  0  0  0  0  0
   -1.0330   -1.9165    0.0000 C   0  0  0  0  0  0  0  0  0  0  0  0
    0.6485   -2.5091    0.0000 N   0  0  0  0  0  0  0  0  0  0  0  0
    1.5538   -2.0736    0.0000 N   0  0  0  0  0  0  0  0  0  0  0  0
    1.4161   -1.0827    0.0000 C   0  0  0  0  0  0  0  0  0  0  0  0
    2.1386   -0.3913    0.0000 C   0  0  0  0  0  0  0  0  0  0  0  0
    1.9011    0.5801    0.0000 C   0  0  0  0  0  0  0  0  0  0  0  0
    3.0986   -0.6714    0.0000 C   0  0  0  0  0  0  0  0  0  0  0  0
   -3.9885    6.6461    0.0000 C   0  0  0  0  0  0  0  0  0  0  0  0
   -4.8043    6.0587    0.0000 C   0  0  0  0  0  0  0  0  0  0  0  0
   -5.7149    6.4721    0.0000 C   0  0  0  0  0  0  0  0  0  0  0  0
   -5.8180    7.4668    0.0000 C   0  0  0  0  0  0  0  0  0  0  0  0
   -5.0022    8.0541    0.0000 C   0  0  0  0  0  0  0  0  0  0  0  0
   -4.0833    7.6467    0.0000 C   0  0  0  0  0  0  0  0  0  0  0  0
   -2.0901    0.3966    0.0000 H   0  0  0  0  0  0  0  0  0  0  0  0
   -0.8062    3.0410    0.0000 H   0  0  0  0  0  0  0  0  0  0  0  0
  1  2  1  0  0  0  0
  2  3  1  0  0  0  0
  3  8  1  0  0  0  0
  3  4  1  0  0  0  0
  4  5  1  0  0  0  0
  5  6  1  0  0  0  0
  6  7  1  0  0  0  0
  7  8  1  0  0  0  0
  6  9  1  0  0  0  0
  6 10  1  0  0  0  0
  2 11  2  0  0  0  0
  1 12  1  0  0  0  0
 12 13  1  6  0  0  0
 13 14  1  0  0  0  0
 14 15  1  0  0  0  0
 15 19  1  0  0  0  0
 15 16  1  0  0  0  0
 16 22  1  0  0  0  0
 16 17  1  0  0  0  0
 17 18  1  0  0  0  0
 18 19  1  0  0  0  0
 19 20  1  0  0  0  0
 20 21  1  0  0  0  0
 21 22  1  0  0  0  0
 21 23  1  0  0  0  0
 23 28  1  0  0  0  0
 23 24  1  0  0  0  0
 24 25  1  0  0  0  0
 24 26  2  0  0  0  0
 26 27  1  0  0  0  0
 27 28  2  0  0  0  0
 28 29  1  0  0  0  0
 29 30  1  0  0  0  0
 29 31  1  0  0  0  0
 12 32  1  0  0  0  0
 32 37  2  0  0  0  0
 32 33  1  0  0  0  0
 33 34  2  0  0  0  0
 34 35  1  0  0  0  0
 35 36  2  0  0  0  0
 36 37  1  0  0  0  0
 16 38  1  1  0  0  0
 19 39  1  6  0  0  0
M  END
>  <Name>
Maraviroc

>  <CAS #>
376348-65-1

>  <human Clearance (mL/min/kg)>
9.4

>  <Primary mechanism (metabolic, biliary or renal)>
metabolic

>  <seqId>
554.0

>  <Code (mechanism and clearance degree index)>
M1

>  < Five M1 and R1 test groups>
M1_3

>  <formamide>
0

>  <prodrug phosphates>
0

>  <VolSurf_V>
1137.0

>  <VolSurf_S>
735.114

>  <VolSurf_R>
1.5467

>  <VolSurf_G>
1.64833

>  <VolSurf_IW1>
0.0335948

>  <VolSurf_IW2>
0.118898

>  <VolSurf_IW3>
0.314462

>  <VolSurf_IW4>
0.627861

>  <VolSurf_ID1>
0.0330773

>  <VolSurf_ID2>
0.0712716

>  <VolSurf_ID3>
0.0874481

>  <VolSurf_ID4>
0.110067

>  <VolSurf_HL1>
2.06118

>  <VolSurf_HL2>
1.64783

>  <VolSurf_A>
4.0155

>  <VolSurf_CP>
0.811405

>  <VolSurf_POL>
57.2521

>  <VolSurf_MW>
514.673

>  <VolSurf_FLEX>
2.58864

>  <VolSurf_FLEX_RB>
0.235331

>  <VolSurf_NCC>
1.0

>  <VolSurf_LOGP n-Oct>
4.505

>  <VolSurf_LOGP c-Hex>
5.859

>  <VolSurf_PSA>
72.18

>  <VolSurf_HSA>
662.934

>  <VolSurf_PSAR>
0.0981888

>  <VolSurf_PHSAR>
0.10888

>  <VolSurf_LgD5>
2.12408

>  <VolSurf_LgD6>
2.32527

>  <VolSurf_LgD7>
2.81835

>  <VolSurf_LgD7.5>
3.22339

>  <VolSurf_LgD8>
3.65202

>  <VolSurf_LgD9>
4.29254

>  <VolSurf_LgD10>
4.47835

>  <VolSurf_AUS7.4>
0.652492

>  <VolSurf_%FU4>
3.93163E-4

>  <VolSurf_%FU5>
0.0120885

>  <VolSurf_%FU6>
0.15232

>  <VolSurf_%FU7>
1.54237

>  <VolSurf_%FU8>
13.5752

>  <VolSurf_%FU9>
61.1073

>  <VolSurf_%FU10>
94.0163

>  <ID>
274

>  <MOKAID>
275

>  <Clearance Route>
possible billary

>  <PC1>
2.9212599999999997

>  <PC2>
-3.51016

$$$$
Melagatran
  -OEChem-08301611272D

 31 33  0     1  0  0  0  0  0999 V2000
   -6.5014    0.1807    0.0000 N   0  0  0  0  0  0  0  0  0  0  0  0
   -6.2419    1.1464    0.0000 C   0  0  0  0  0  0  0  0  0  0  0  0
   -6.9486    1.8540    0.0000 N   0  0  0  0  0  0  0  0  0  0  0  0
   -5.2758    1.4046    0.0000 C   0  0  0  0  0  0  0  0  0  0  0  0
   -4.5676    0.6912    0.0000 C   0  0  0  0  0  0  0  0  0  0  0  0
   -3.6015    0.9493    0.0000 C   0  0  0  0  0  0  0  0  0  0  0  0
   -3.3363    1.9135    0.0000 C   0  0  0  0  0  0  0  0  0  0  0  0
   -2.3691    2.1674    0.0000 C   0  0  0  0  0  0  0  0  0  0  0  0
   -1.6656    1.4567    0.0000 N   0  0  0  0  0  0  0  0  0  0  0  0
   -0.6984    1.7106    0.0000 C   0  0  0  0  0  0  0  0  0  0  0  0
   -0.4346    2.6752    0.0000 O   0  0  0  0  0  0  0  0  0  0  0  0
    0.0051    0.9999    0.0000 C   0  0  2  0  0  0  0  0  0  0  0  0
    0.0000    0.0000    0.0000 C   0  0  0  0  0  0  0  0  0  0  0  0
    0.9999   -0.0051    0.0000 C   0  0  0  0  0  0  0  0  0  0  0  0
    1.0050    0.9948    0.0000 N   0  0  0  0  0  0  0  0  0  0  0  0
    1.7157    1.6983    0.0000 C   0  0  0  0  0  0  0  0  0  0  0  0
    1.4618    2.6655    0.0000 O   0  0  0  0  0  0  0  0  0  0  0  0
    2.6803    1.4345    0.0000 C   0  0  2  0  0  0  0  0  0  0  0  0
    2.9342    0.4673    0.0000 N   0  0  0  0  0  0  0  0  0  0  0  0
    2.2235   -0.2362    0.0000 C   0  0  0  0  0  0  0  0  0  0  0  0
    2.4774   -1.2034    0.0000 C   0  0  0  0  0  0  0  0  0  0  0  0
    3.4420   -1.4672    0.0000 O   0  0  0  0  0  0  0  0  0  0  0  0
    1.7667   -1.9069    0.0000 O   0  0  0  0  0  0  0  0  0  0  0  0
    3.3910    2.1380    0.0000 C   0  0  0  0  0  0  0  0  0  0  0  0
    4.3598    1.8701    0.0000 C   0  0  0  0  0  0  0  0  0  0  0  0
    5.0706    2.5735    0.0000 C   0  0  0  0  0  0  0  0  0  0  0  0
    4.8224    3.5423    0.0000 C   0  0  0  0  0  0  0  0  0  0  0  0
    3.8535    3.8103    0.0000 C   0  0  0  0  0  0  0  0  0  0  0  0
    3.1329    3.1095    0.0000 C   0  0  0  0  0  0  0  0  0  0  0  0
   -4.0445    2.6269    0.0000 C   0  0  0  0  0  0  0  0  0  0  0  0
   -5.0179    2.3760    0.0000 C   0  0  0  0  0  0  0  0  0  0  0  0
  1  2  1  0  0  0  0
  2  3  2  3  0  0  0
  2  4  1  0  0  0  0
  4 31  2  0  0  0  0
  4  5  1  0  0  0  0
  5  6  2  0  0  0  0
  6  7  1  0  0  0  0
  7  8  1  0  0  0  0
  8  9  1  0  0  0  0
  9 10  1  0  0  0  0
 10 11  2  0  0  0  0
 12 10  1  1  0  0  0
 12 15  1  0  0  0  0
 12 13  1  0  0  0  0
 13 14  1  0  0  0  0
 14 15  1  0  0  0  0
 15 16  1  0  0  0  0
 16 17  2  0  0  0  0
 18 16  1  1  0  0  0
 18 19  1  0  0  0  0
 19 20  1  0  0  0  0
 20 21  1  0  0  0  0
 21 22  2  0  0  0  0
 21 23  1  0  0  0  0
 18 24  1  0  0  0  0
 24 29  1  0  0  0  0
 24 25  1  0  0  0  0
 25 26  1  0  0  0  0
 26 27  1  0  0  0  0
 27 28  1  0  0  0  0
 28 29  1  0  0  0  0
  7 30  2  0  0  0  0
 30 31  1  0  0  0  0
M  END
>  <Name>
Melagatran

>  <CAS #>
159776-70-2

>  <human Clearance (mL/min/kg)>
1.9

>  <Primary mechanism (metabolic, biliary or renal)>
renal

>  <seqId>
560.0

>  <Code (mechanism and clearance degree index)>
R1

>  < Five M1 and R1 test groups>
R1_2

>  <formamide>
0

>  <prodrug phosphates>
0

>  <VolSurf_V>
957.125

>  <VolSurf_S>
658.38

>  <VolSurf_R>
1.45376

>  <VolSurf_G>
1.65967

>  <VolSurf_IW1>
0.0528456

>  <VolSurf_IW2>
0.142331

>  <VolSurf_IW3>
0.377792

>  <VolSurf_IW4>
0.614064

>  <VolSurf_ID1>
0.0315329

>  <VolSurf_ID2>
0.125749

>  <VolSurf_ID3>
0.200515

>  <VolSurf_ID4>
0.242702

>  <VolSurf_HL1>
4.87625

>  <VolSurf_HL2>
4.93939

>  <VolSurf_A>
6.09522

>  <VolSurf_CP>
0.24841

>  <VolSurf_POL>
47.586

>  <VolSurf_MW>
430.52

>  <VolSurf_FLEX>
3.40956

>  <VolSurf_FLEX_RB>
0.30996

>  <VolSurf_NCC>
3.0

>  <VolSurf_LOGP n-Oct>
-0.764

>  <VolSurf_LOGP c-Hex>
-1.336

>  <VolSurf_PSA>
170.92

>  <VolSurf_HSA>
487.461

>  <VolSurf_PSAR>
0.259607

>  <VolSurf_PHSAR>
0.350634

>  <VolSurf_LgD5>
-3.1559

>  <VolSurf_LgD6>
-3.11062

>  <VolSurf_LgD7>
-2.83096

>  <VolSurf_LgD7.5>
-2.55373

>  <VolSurf_LgD8>
-2.2863

>  <VolSurf_LgD9>
-2.04079

>  <VolSurf_LgD10>
-2.03065

>  <VolSurf_AUS7.4>
0.0

>  <VolSurf_%FU4>
0.0

>  <VolSurf_%FU5>
0.0

>  <VolSurf_%FU6>
0.0

>  <VolSurf_%FU7>
0.0

>  <VolSurf_%FU8>
0.0

>  <VolSurf_%FU9>
0.0

>  <VolSurf_%FU10>
0.0

>  <ID>
275

>  <MOKAID>
276

>  <Clearance Route>
possible billary

>  <PC1>
-2.77505

>  <PC2>
-1.17997

$$$$
Meloxicam
  -OEChem-08301611272D

 23 25  0     1  0  0  0  0  0999 V2000
    4.3394    1.5082    0.0000 C   0  0  0  0  0  0  0  0  0  0  0  0
    3.4735    1.0079    0.0000 N   0  0  3  0  0  0  0  0  0  0  0  0
    3.4748    0.0023    0.0000 C   0  0  0  0  0  0  0  0  0  0  0  0
    2.6038   -0.4989    0.0000 C   0  0  0  0  0  0  0  0  0  0  0  0
    2.6037   -1.4989    0.0000 O   0  0  0  0  0  0  0  0  0  0  0  0
    1.7371    0.0000    0.0000 C   0  0  0  0  0  0  0  0  0  0  0  0
    0.8679   -0.4977    0.0000 C   0  0  0  0  0  0  0  0  0  0  0  0
    0.0000    0.0000    0.0000 C   0  0  0  0  0  0  0  0  0  0  0  0
   -0.0000    1.0056    0.0000 C   0  0  0  0  0  0  0  0  0  0  0  0
    0.8679    1.5135    0.0000 C   0  0  0  0  0  0  0  0  0  0  0  0
    1.7358    1.0056    0.0000 C   0  0  0  0  0  0  0  0  0  0  0  0
    2.6012    1.5123    0.0000 S   0  0  0  0  0  0  0  0  0  0  0  0
    1.9555    2.2759    0.0000 O   0  0  0  0  0  0  0  0  0  0  0  0
    3.2428    2.2794    0.0000 O   0  0  0  0  0  0  0  0  0  0  0  0
    4.3408   -0.4978    0.0000 C   0  0  0  0  0  0  0  0  0  0  0  0
    4.3407   -1.4978    0.0000 O   0  0  0  0  0  0  0  0  0  0  0  0
    5.2069    0.0022    0.0000 N   0  0  0  0  0  0  0  0  0  0  0  0
    6.0728   -0.4979    0.0000 C   0  0  0  0  0  0  0  0  0  0  0  0
    6.9883   -0.0914    0.0000 N   0  0  0  0  0  0  0  0  0  0  0  0
    7.6593   -0.8348    0.0000 C   0  0  0  0  0  0  0  0  0  0  0  0
    7.1581   -1.7001    0.0000 C   0  0  0  0  0  0  0  0  0  0  0  0
    7.5663   -2.6130    0.0000 C   0  0  0  0  0  0  0  0  0  0  0  0
    6.1787   -1.4967    0.0000 S   0  0  0  0  0  0  0  0  0  0  0  0
  1  2  1  0  0  0  0
  2 12  1  0  0  0  0
  2  3  1  0  0  0  0
  3  4  2  0  0  0  0
  4  5  1  0  0  0  0
  4  6  1  0  0  0  0
  6 11  2  0  0  0  0
  6  7  1  0  0  0  0
  7  8  2  0  0  0  0
  8  9  1  0  0  0  0
  9 10  2  0  0  0  0
 10 11  1  0  0  0  0
 11 12  1  0  0  0  0
 12 13  2  0  0  0  0
 12 14  2  0  0  0  0
  3 15  1  0  0  0  0
 15 16  2  0  0  0  0
 15 17  1  0  0  0  0
 17 18  1  0  0  0  0
 18 23  1  0  0  0  0
 18 19  2  0  0  0  0
 19 20  1  0  0  0  0
 20 21  2  0  0  0  0
 21 22  1  0  0  0  0
 21 23  1  0  0  0  0
M  END
>  <Name>
Meloxicam

>  <CAS #>
71125-38-7

>  <human Clearance (mL/min/kg)>
0.12

>  <Primary mechanism (metabolic, biliary or renal)>
metabolic

>  <seqId>
562.0

>  <Code (mechanism and clearance degree index)>
M1

>  < Five M1 and R1 test groups>
M1_1

>  <formamide>
0

>  <prodrug phosphates>
0

>  <VolSurf_V>
686.125

>  <VolSurf_S>
471.214

>  <VolSurf_R>
1.45608

>  <VolSurf_G>
1.40184

>  <VolSurf_IW1>
0.0412889

>  <VolSurf_IW2>
0.0947907

>  <VolSurf_IW3>
0.162677

>  <VolSurf_IW4>
0.401576

>  <VolSurf_ID1>
0.0156497

>  <VolSurf_ID2>
0.0783991

>  <VolSurf_ID3>
0.142068

>  <VolSurf_ID4>
0.204147

>  <VolSurf_HL1>
3.06441

>  <VolSurf_HL2>
1.74586

>  <VolSurf_A>
2.03919

>  <VolSurf_CP>
0.780885

>  <VolSurf_POL>
34.152

>  <VolSurf_MW>
350.393

>  <VolSurf_FLEX>
0.473221

>  <VolSurf_FLEX_RB>
0.118305

>  <VolSurf_NCC>
1.0

>  <VolSurf_LOGP n-Oct>
2.552

>  <VolSurf_LOGP c-Hex>
-1.619

>  <VolSurf_PSA>
121.732

>  <VolSurf_HSA>
349.482

>  <VolSurf_PSAR>
0.258338

>  <VolSurf_PHSAR>
0.348323

>  <VolSurf_LgD5>
1.31908

>  <VolSurf_LgD6>
0.361913

>  <VolSurf_LgD7>
-0.477866

>  <VolSurf_LgD7.5>
-0.739136

>  <VolSurf_LgD8>
-0.870516

>  <VolSurf_LgD9>
-0.939599

>  <VolSurf_LgD10>
-0.947153

>  <VolSurf_AUS7.4>
0.0

>  <VolSurf_%FU4>
38.1443

>  <VolSurf_%FU5>
5.81923

>  <VolSurf_%FU6>
0.614097

>  <VolSurf_%FU7>
0.061751

>  <VolSurf_%FU8>
0.00617853

>  <VolSurf_%FU9>
6.17888E-4

>  <VolSurf_%FU10>
6.17891E-5

>  <ID>
276

>  <MOKAID>
277

>  <Clearance Route>
uncertain

>  <PC1>
-0.950314

>  <PC2>
-0.0481976

$$$$
Meptazinol
  -OEChem-08301611272D

 17 18  0     1  0  0  0  0  0999 V2000
    1.6239    2.1987    0.0000 C   0  0  0  0  0  0  0  0  0  0  0  0
    1.5407    1.2022    0.0000 C   0  0  0  0  0  0  0  0  0  0  0  0
    0.6361    0.7760    0.0000 C   0  0  3  0  0  0  0  0  0  0  0  0
    0.0000    0.0000    0.0000 C   0  0  0  0  0  0  0  0  0  0  0  0
   -1.0058    0.0072    0.0000 C   0  0  0  0  0  0  0  0  0  0  0  0
   -1.6255    0.8001    0.0000 C   0  0  0  0  0  0  0  0  0  0  0  0
   -1.3907    1.7794    0.0000 C   0  0  0  0  0  0  0  0  0  0  0  0
   -0.4840    2.2012    0.0000 N   0  0  3  0  0  0  0  0  0  0  0  0
   -0.4723    3.2011    0.0000 C   0  0  0  0  0  0  0  0  0  0  0  0
    0.4188    1.7552    0.0000 C   0  0  0  0  0  0  0  0  0  0  0  0
    1.2510   -0.0126    0.0000 C   0  0  0  0  0  0  0  0  0  0  0  0
    0.8707   -0.9431    0.0000 C   0  0  0  0  0  0  0  0  0  0  0  0
    1.4856   -1.7318    0.0000 C   0  0  0  0  0  0  0  0  0  0  0  0
    2.4768   -1.5994    0.0000 C   0  0  0  0  0  0  0  0  0  0  0  0
    2.8571   -0.6689    0.0000 C   0  0  0  0  0  0  0  0  0  0  0  0
    3.8483   -0.5366    0.0000 O   0  0  0  0  0  0  0  0  0  0  0  0
    2.2461    0.1292    0.0000 C   0  0  0  0  0  0  0  0  0  0  0  0
  1  2  1  0  0  0  0
  2  3  1  0  0  0  0
  3 10  1  0  0  0  0
  3  4  1  0  0  0  0
  4  5  1  0  0  0  0
  5  6  1  0  0  0  0
  6  7  1  0  0  0  0
  7  8  1  0  0  0  0
  8  9  1  0  0  0  0
  8 10  1  0  0  0  0
  3 11  1  0  0  0  0
 11 17  2  0  0  0  0
 11 12  1  0  0  0  0
 12 13  2  0  0  0  0
 13 14  1  0  0  0  0
 14 15  2  0  0  0  0
 15 16  1  0  0  0  0
 15 17  1  0  0  0  0
M  END
>  <Name>
Meptazinol

>  <CAS #>
54340-58-8

>  <human Clearance (mL/min/kg)>
28.0

>  <Primary mechanism (metabolic, biliary or renal)>
metabolic

>  <seqId>
569.0

>  <Code (mechanism and clearance degree index)>
M1

>  < Five M1 and R1 test groups>
M1_3

>  <formamide>
0

>  <prodrug phosphates>
0

>  <VolSurf_V>
601.0

>  <VolSurf_S>
400.952

>  <VolSurf_R>
1.49893

>  <VolSurf_G>
1.25614

>  <VolSurf_IW1>
0.0829456

>  <VolSurf_IW2>
0.435181

>  <VolSurf_IW3>
1.06241

>  <VolSurf_IW4>
1.59942

>  <VolSurf_ID1>
0.0269197

>  <VolSurf_ID2>
0.0786817

>  <VolSurf_ID3>
0.172663

>  <VolSurf_ID4>
0.297355

>  <VolSurf_HL1>
0.606061

>  <VolSurf_HL2>
0.441667

>  <VolSurf_A>
5.15345

>  <VolSurf_CP>
2.314

>  <VolSurf_POL>
30.086

>  <VolSurf_MW>
234.357

>  <VolSurf_FLEX>
0.468892

>  <VolSurf_FLEX_RB>
0.0937784

>  <VolSurf_NCC>
1.0

>  <VolSurf_LOGP n-Oct>
3.145

>  <VolSurf_LOGP c-Hex>
1.257

>  <VolSurf_PSA>
31.64

>  <VolSurf_HSA>
369.312

>  <VolSurf_PSAR>
0.0789121

>  <VolSurf_PHSAR>
0.0856728

>  <VolSurf_LgD5>
0.0570264

>  <VolSurf_LgD6>
0.372997

>  <VolSurf_LgD7>
1.15974

>  <VolSurf_LgD7.5>
1.62978

>  <VolSurf_LgD8>
2.09516

>  <VolSurf_LgD9>
2.79686

>  <VolSurf_LgD10>
2.65313

>  <VolSurf_AUS7.4>
0.489193

>  <VolSurf_%FU4>
9.72614E-4

>  <VolSurf_%FU5>
0.00972529

>  <VolSurf_%FU6>
0.0971678

>  <VolSurf_%FU7>
0.963235

>  <VolSurf_%FU8>
8.84768

>  <VolSurf_%FU9>
44.6964

>  <VolSurf_%FU10>
31.3035

>  <ID>
277

>  <MOKAID>
278

>  <Clearance Route>
metabolic

>  <PC1>
2.29454

>  <PC2>
1.57968

$$$$
Meropenem
  -OEChem-08301611272D

 27 29  0     1  0  0  0  0  0999 V2000
   -4.2122    0.9485    0.0000 C   0  0  0  0  0  0  0  0  0  0  0  0
   -3.2463    1.2073    0.0000 C   0  0  1  0  0  0  0  0  0  0  0  0
   -2.9875    2.1732    0.0000 O   0  0  0  0  0  0  0  0  0  0  0  0
   -2.5392    0.5002    0.0000 C   0  0  2  0  0  0  0  0  0  0  0  0
   -1.5391    0.5002    0.0000 C   0  0  1  0  0  0  0  0  0  0  0  0
   -0.5878    0.8091    0.0000 C   0  0  1  0  0  0  0  0  0  0  0  0
   -0.2787    1.7601    0.0000 C   0  0  0  0  0  0  0  0  0  0  0  0
    0.0000    0.0000    0.0000 C   0  0  0  0  0  0  0  0  0  0  0  0
   -0.5881   -0.8091    0.0000 C   0  0  0  0  0  0  0  0  0  0  0  0
   -1.5392   -0.4999    0.0000 N   0  0  0  0  0  0  0  0  0  0  0  0
   -2.5392   -0.4999    0.0000 C   0  0  0  0  0  0  0  0  0  0  0  0
   -3.2463   -1.2070    0.0000 O   0  0  0  0  0  0  0  0  0  0  0  0
   -0.2793   -1.7602    0.0000 C   0  0  0  0  0  0  0  0  0  0  0  0
   -0.9485   -2.5032    0.0000 O   0  0  0  0  0  0  0  0  0  0  0  0
    0.6989   -1.9683    0.0000 O   0  0  0  0  0  0  0  0  0  0  0  0
    1.0000   -0.0001    0.0000 S   0  0  0  0  0  0  0  0  0  0  0  0
    1.5001    0.8658    0.0000 C   0  0  2  0  0  0  0  0  0  0  0  0
    1.0947    1.7800    0.0000 C   0  0  0  0  0  0  0  0  0  0  0  0
    1.8350    2.4529    0.0000 N   0  0  0  0  0  0  0  0  0  0  0  0
    2.7054    1.9513    0.0000 C   0  0  1  0  0  0  0  0  0  0  0  0
    2.4960    0.9717    0.0000 C   0  0  0  0  0  0  0  0  0  0  0  0
    3.6190    2.3578    0.0000 C   0  0  0  0  0  0  0  0  0  0  0  0
    4.4279    1.7698    0.0000 O   0  0  0  0  0  0  0  0  0  0  0  0
    3.7238    3.3523    0.0000 N   0  0  0  0  0  0  0  0  0  0  0  0
    2.9149    3.9403    0.0000 C   0  0  0  0  0  0  0  0  0  0  0  0
    4.6374    3.7588    0.0000 C   0  0  0  0  0  0  0  0  0  0  0  0
   -1.6954    1.4879    0.0000 H   0  0  0  0  0  0  0  0  0  0  0  0
  1  2  1  0  0  0  0
  2  3  1  1  0  0  0
  2  4  1  0  0  0  0
  4 11  1  6  0  0  0
  4  5  1  0  0  0  0
  5 10  1  0  0  0  0
  5  6  1  0  0  0  0
  6  7  1  1  0  0  0
  6  8  1  0  0  0  0
  8  9  2  0  0  0  0
  9 10  1  0  0  0  0
 10 11  1  0  0  0  0
 11 12  2  0  0  0  0
  9 13  1  0  0  0  0
 13 14  2  0  0  0  0
 13 15  1  0  0  0  0
  8 16  1  0  0  0  0
 17 16  1  6  0  0  0
 17 21  1  0  0  0  0
 17 18  1  0  0  0  0
 18 19  1  0  0  0  0
 19 20  1  0  0  0  0
 20 21  1  0  0  0  0
 20 22  1  6  0  0  0
 22 23  2  0  0  0  0
 22 24  1  0  0  0  0
 24 25  1  0  0  0  0
 24 26  1  0  0  0  0
  5 27  1  6  0  0  0
M  END
>  <Name>
Meropenem

>  <CAS #>
96036-03-2

>  <human Clearance (mL/min/kg)>
3.9

>  <Primary mechanism (metabolic, biliary or renal)>
renal

>  <seqId>
571.0

>  <Code (mechanism and clearance degree index)>
R1

>  < Five M1 and R1 test groups>
R1_4

>  <formamide>
0

>  <prodrug phosphates>
0

>  <VolSurf_V>
789.0

>  <VolSurf_S>
531.114

>  <VolSurf_R>
1.48556

>  <VolSurf_G>
1.45874

>  <VolSurf_IW1>
0.0612403

>  <VolSurf_IW2>
0.131969

>  <VolSurf_IW3>
0.312031

>  <VolSurf_IW4>
0.590668

>  <VolSurf_ID1>
0.0597995

>  <VolSurf_ID2>
0.141287

>  <VolSurf_ID3>
0.235849

>  <VolSurf_ID4>
0.279438

>  <VolSurf_HL1>
10.9437

>  <VolSurf_HL2>
12.806

>  <VolSurf_A>
5.32323

>  <VolSurf_CP>
0.115285

>  <VolSurf_POL>
38.826

>  <VolSurf_MW>
383.462

>  <VolSurf_FLEX>
2.25075

>  <VolSurf_FLEX_RB>
0.204614

>  <VolSurf_NCC>
2.0

>  <VolSurf_LOGP n-Oct>
-1.032

>  <VolSurf_LOGP c-Hex>
-3.529

>  <VolSurf_PSA>
141.86

>  <VolSurf_HSA>
389.254

>  <VolSurf_PSAR>
0.267099

>  <VolSurf_PHSAR>
0.364441

>  <VolSurf_LgD5>
-3.33632

>  <VolSurf_LgD6>
-3.33796

>  <VolSurf_LgD7>
-3.38457

>  <VolSurf_LgD7.5>
-3.47787

>  <VolSurf_LgD8>
-3.67302

>  <VolSurf_LgD9>
-4.23091

>  <VolSurf_LgD10>
-4.48809

>  <VolSurf_AUS7.4>
0.0

>  <VolSurf_%FU4>
0.0

>  <VolSurf_%FU5>
0.0

>  <VolSurf_%FU6>
0.0

>  <VolSurf_%FU7>
0.0

>  <VolSurf_%FU8>
0.0

>  <VolSurf_%FU9>
0.0

>  <VolSurf_%FU10>
0.0

>  <ID>
278

>  <MOKAID>
279

>  <Clearance Route>
renal

>  <PC1>
-3.45686

>  <PC2>
0.172502

$$$$
Metazosin
  -OEChem-08301611272D

 27 29  0     1  0  0  0  0  0999 V2000
    2.6037   -1.4989    0.0000 N   0  0  0  0  0  0  0  0  0  0  0  0
    2.6038   -0.4989    0.0000 C   0  0  0  0  0  0  0  0  0  0  0  0
    1.7371    0.0000    0.0000 C   0  0  0  0  0  0  0  0  0  0  0  0
    0.8679   -0.4977    0.0000 C   0  0  0  0  0  0  0  0  0  0  0  0
    0.0000    0.0000    0.0000 C   0  0  0  0  0  0  0  0  0  0  0  0
   -0.0000    1.0056    0.0000 C   0  0  0  0  0  0  0  0  0  0  0  0
    0.8679    1.5135    0.0000 C   0  0  0  0  0  0  0  0  0  0  0  0
    1.7358    1.0056    0.0000 C   0  0  0  0  0  0  0  0  0  0  0  0
    2.6012    1.5123    0.0000 N   0  0  0  0  0  0  0  0  0  0  0  0
    3.4735    1.0079    0.0000 C   0  0  0  0  0  0  0  0  0  0  0  0
    3.4748    0.0023    0.0000 N   0  0  0  0  0  0  0  0  0  0  0  0
    4.3394    1.5082    0.0000 N   0  0  0  0  0  0  0  0  0  0  0  0
    5.2127    1.0110    0.0000 C   0  0  0  0  0  0  0  0  0  0  0  0
    6.0830    1.5138    0.0000 C   0  0  0  0  0  0  0  0  0  0  0  0
    6.0799    2.5138    0.0000 N   0  0  0  0  0  0  0  0  0  0  0  0
    5.2151    3.0159    0.0000 C   0  0  0  0  0  0  0  0  0  0  0  0
    4.3449    2.5131    0.0000 C   0  0  0  0  0  0  0  0  0  0  0  0
    6.9458    3.0141    0.0000 C   0  0  0  0  0  0  0  0  0  0  0  0
    6.9455    4.0141    0.0000 C   0  0  2  0  0  0  0  0  0  0  0  0
    6.0793    4.5138    0.0000 C   0  0  0  0  0  0  0  0  0  0  0  0
    7.8114    4.5144    0.0000 O   0  0  0  0  0  0  0  0  0  0  0  0
    7.8111    5.5144    0.0000 C   0  0  0  0  0  0  0  0  0  0  0  0
    7.8120    2.5144    0.0000 O   0  0  0  0  0  0  0  0  0  0  0  0
   -0.8675    1.5031    0.0000 O   0  0  0  0  0  0  0  0  0  0  0  0
   -1.7320    1.0005    0.0000 C   0  0  0  0  0  0  0  0  0  0  0  0
   -0.8653   -0.5013    0.0000 O   0  0  0  0  0  0  0  0  0  0  0  0
   -0.8638   -1.5013    0.0000 C   0  0  0  0  0  0  0  0  0  0  0  0
  1  2  1  0  0  0  0
  2 11  2  0  0  0  0
  2  3  1  0  0  0  0
  3  8  2  0  0  0  0
  3  4  1  0  0  0  0
  4  5  2  0  0  0  0
  5  6  1  0  0  0  0
  6  7  2  0  0  0  0
  7  8  1  0  0  0  0
  8  9  1  0  0  0  0
  9 10  2  0  0  0  0
 10 11  1  0  0  0  0
 10 12  1  0  0  0  0
 12 17  1  0  0  0  0
 12 13  1  0  0  0  0
 13 14  1  0  0  0  0
 14 15  1  0  0  0  0
 15 16  1  0  0  0  0
 16 17  1  0  0  0  0
 15 18  1  0  0  0  0
 18 19  1  0  0  0  0
 19 20  1  6  0  0  0
 19 21  1  0  0  0  0
 21 22  1  0  0  0  0
 18 23  2  0  0  0  0
  6 24  1  0  0  0  0
 24 25  1  0  0  0  0
  5 26  1  0  0  0  0
 26 27  1  0  0  0  0
M  END
>  <Name>
Metazosin

>  <CAS #>
95549-92-1

>  <human Clearance (mL/min/kg)>
0.53

>  <Primary mechanism (metabolic, biliary or renal)>
renal

>  <seqId>
573.0

>  <Code (mechanism and clearance degree index)>
R1

>  < Five M1 and R1 test groups>
R1_1

>  <formamide>
0

>  <prodrug phosphates>
0

>  <VolSurf_V>
815.875

>  <VolSurf_S>
570.681

>  <VolSurf_R>
1.42965

>  <VolSurf_G>
1.57123

>  <VolSurf_IW1>
0.0616248

>  <VolSurf_IW2>
0.159567

>  <VolSurf_IW3>
0.611814

>  <VolSurf_IW4>
1.11209

>  <VolSurf_ID1>
0.0172136

>  <VolSurf_ID2>
0.0639189

>  <VolSurf_ID3>
0.0971983

>  <VolSurf_ID4>
0.127735

>  <VolSurf_HL1>
1.65577

>  <VolSurf_HL2>
0.972727

>  <VolSurf_A>
4.79385

>  <VolSurf_CP>
1.67005

>  <VolSurf_POL>
38.911

>  <VolSurf_MW>
375.422

>  <VolSurf_FLEX>
0.872596

>  <VolSurf_FLEX_RB>
0.0793269

>  <VolSurf_NCC>
0.0

>  <VolSurf_LOGP n-Oct>
1.06

>  <VolSurf_LOGP c-Hex>
-1.269

>  <VolSurf_PSA>
109.76

>  <VolSurf_HSA>
460.921

>  <VolSurf_PSAR>
0.192331

>  <VolSurf_PHSAR>
0.238132

>  <VolSurf_LgD5>
-0.579386

>  <VolSurf_LgD6>
0.334805

>  <VolSurf_LgD7>
0.904163

>  <VolSurf_LgD7.5>
1.00443

>  <VolSurf_LgD8>
1.04164

>  <VolSurf_LgD9>
1.05813

>  <VolSurf_LgD10>
1.05981

>  <VolSurf_AUS7.4>
1.93465

>  <VolSurf_%FU4>
0.231007

>  <VolSurf_%FU5>
2.2632

>  <VolSurf_%FU6>
18.8024

>  <VolSurf_%FU7>
69.8398

>  <VolSurf_%FU8>
95.8603

>  <VolSurf_%FU9>
99.57

>  <VolSurf_%FU10>
99.9568

>  <ID>
279

>  <MOKAID>
280

>  <Clearance Route>
metabolic

>  <PC1>
1.71255

>  <PC2>
-0.283031

$$$$
Metformin
  -OEChem-08301611272D

  9  8  0     0  0  0  0  0  0999 V2000
    0.0000    0.0000    0.0000 C   0  0  0  0  0  0  0  0  0  0  0  0
    1.0000    0.0000    0.0000 N   0  0  0  0  0  0  0  0  0  0  0  0
    1.5000    0.8660    0.0000 C   0  0  0  0  0  0  0  0  0  0  0  0
    1.5000   -0.8660    0.0000 C   0  0  0  0  0  0  0  0  0  0  0  0
    1.0000   -1.7321    0.0000 N   0  0  0  0  0  0  0  0  0  0  0  0
    2.5000   -0.8660    0.0000 N   0  0  0  0  0  0  0  0  0  0  0  0
    3.0000   -1.7321    0.0000 C   0  0  0  0  0  0  0  0  0  0  0  0
    2.5000   -2.5981    0.0000 N   0  0  0  0  0  0  0  0  0  0  0  0
    4.0000   -1.7321    0.0000 N   0  0  0  0  0  0  0  0  0  0  0  0
  1  2  1  0  0  0  0
  2  3  1  0  0  0  0
  2  4  1  0  0  0  0
  4  5  2  3  0  0  0
  4  6  1  0  0  0  0
  6  7  1  0  0  0  0
  7  8  2  3  0  0  0
  7  9  1  0  0  0  0
M  END
>  <Name>
Metformin

>  <CAS #>
657-24-9

>  <human Clearance (mL/min/kg)>
7.4

>  <Primary mechanism (metabolic, biliary or renal)>
renal

>  <seqId>
574.0

>  <Code (mechanism and clearance degree index)>
R1

>  < Five M1 and R1 test groups>
R1_3

>  <formamide>
0

>  <prodrug phosphates>
0

>  <VolSurf_V>
339.875

>  <VolSurf_S>
265.015

>  <VolSurf_R>
1.28247

>  <VolSurf_G>
1.19361

>  <VolSurf_IW1>
0.161493

>  <VolSurf_IW2>
0.416834

>  <VolSurf_IW3>
0.891847

>  <VolSurf_IW4>
1.22596

>  <VolSurf_ID1>
0.0793221

>  <VolSurf_ID2>
0.0743499

>  <VolSurf_ID3>
0.0612151

>  <VolSurf_ID4>
0.159576

>  <VolSurf_HL1>
1.5102

>  <VolSurf_HL2>
0.769231

>  <VolSurf_A>
3.01364

>  <VolSurf_CP>
2.27756

>  <VolSurf_POL>
14.468

>  <VolSurf_MW>
130.172

>  <VolSurf_FLEX>
0.872813

>  <VolSurf_FLEX_RB>
0.145469

>  <VolSurf_NCC>
1.0

>  <VolSurf_LOGP n-Oct>
-2.019

>  <VolSurf_LOGP c-Hex>
-0.118

>  <VolSurf_PSA>
90.93

>  <VolSurf_HSA>
174.085

>  <VolSurf_PSAR>
0.343112

>  <VolSurf_PHSAR>
0.522331

>  <VolSurf_LgD5>
-5.52531

>  <VolSurf_LgD6>
-5.51956

>  <VolSurf_LgD7>
-5.51834

>  <VolSurf_LgD7.5>
-5.51673

>  <VolSurf_LgD8>
-5.51182

>  <VolSurf_LgD9>
-5.45195

>  <VolSurf_LgD10>
-5.09269

>  <VolSurf_AUS7.4>
0.0

>  <VolSurf_%FU4>
4.59575E-8

>  <VolSurf_%FU5>
5.20394E-7

>  <VolSurf_%FU6>
5.27373E-6

>  <VolSurf_%FU7>
5.28081E-5

>  <VolSurf_%FU8>
5.2815E-4

>  <VolSurf_%FU9>
0.00528132

>  <VolSurf_%FU10>
0.0527882

>  <ID>
280

>  <MOKAID>
281

>  <Clearance Route>
renal

>  <PC1>
-3.5345400000000002

>  <PC2>
5.4307099999999995

$$$$
Methicillin
  -OEChem-08301611272D

 27 29  0     1  0  0  0  0  0999 V2000
   -0.4514    1.6845    0.0000 C   0  0  0  0  0  0  0  0  0  0  0  0
   -1.1606    2.3895    0.0000 O   0  0  0  0  0  0  0  0  0  0  0  0
   -2.1257    2.1278    0.0000 C   0  0  0  0  0  0  0  0  0  0  0  0
   -2.8365    2.8386    0.0000 C   0  0  0  0  0  0  0  0  0  0  0  0
   -3.8017    2.5770    0.0000 C   0  0  0  0  0  0  0  0  0  0  0  0
   -4.0633    1.6118    0.0000 C   0  0  0  0  0  0  0  0  0  0  0  0
   -3.3526    0.9010    0.0000 C   0  0  0  0  0  0  0  0  0  0  0  0
   -3.6142   -0.0642    0.0000 O   0  0  0  0  0  0  0  0  0  0  0  0
   -2.9092   -0.7734    0.0000 C   0  0  0  0  0  0  0  0  0  0  0  0
   -2.3801    1.1554    0.0000 C   0  0  0  0  0  0  0  0  0  0  0  0
   -1.6730    0.4483    0.0000 C   0  0  0  0  0  0  0  0  0  0  0  0
   -1.9319   -0.5176    0.0000 O   0  0  0  0  0  0  0  0  0  0  0  0
   -0.7071    0.7071    0.0000 N   0  0  0  0  0  0  0  0  0  0  0  0
   -0.0000   -0.0000    0.0000 C   0  0  1  0  0  0  0  0  0  0  0  0
    1.0001   -0.0000    0.0000 C   0  0  1  0  0  0  0  0  0  0  0  0
    1.9514    0.3089    0.0000 S   0  0  0  0  0  0  0  0  0  0  0  0
    2.5392   -0.5002    0.0000 C   0  0  0  0  0  0  0  0  0  0  0  0
    3.2824    0.1689    0.0000 C   0  0  0  0  0  0  0  0  0  0  0  0
    3.2822   -1.1694    0.0000 C   0  0  0  0  0  0  0  0  0  0  0  0
    1.9511   -1.3093    0.0000 C   0  0  1  0  0  0  0  0  0  0  0  0
    1.0000   -1.0001    0.0000 N   0  0  0  0  0  0  0  0  0  0  0  0
   -0.0000   -1.0001    0.0000 C   0  0  0  0  0  0  0  0  0  0  0  0
   -0.7071   -1.7072    0.0000 O   0  0  0  0  0  0  0  0  0  0  0  0
    2.2599   -2.2604    0.0000 C   0  0  0  0  0  0  0  0  0  0  0  0
    1.5907   -3.0034    0.0000 O   0  0  0  0  0  0  0  0  0  0  0  0
    3.2381   -2.4685    0.0000 O   0  0  0  0  0  0  0  0  0  0  0  0
    0.8438    0.9877    0.0000 H   0  0  0  0  0  0  0  0  0  0  0  0
  1  2  1  0  0  0  0
  2  3  1  0  0  0  0
  3 10  2  0  0  0  0
  3  4  1  0  0  0  0
  4  5  2  0  0  0  0
  5  6  1  0  0  0  0
  6  7  2  0  0  0  0
  7  8  1  0  0  0  0
  8  9  1  0  0  0  0
  7 10  1  0  0  0  0
 10 11  1  0  0  0  0
 11 12  2  0  0  0  0
 11 13  1  0  0  0  0
 14 13  1  1  0  0  0
 14 22  1  0  0  0  0
 14 15  1  0  0  0  0
 15 21  1  0  0  0  0
 15 16  1  0  0  0  0
 16 17  1  0  0  0  0
 17 18  1  0  0  0  0
 17 19  1  0  0  0  0
 17 20  1  0  0  0  0
 20 21  1  0  0  0  0
 21 22  1  0  0  0  0
 22 23  2  0  0  0  0
 20 24  1  6  0  0  0
 24 25  2  0  0  0  0
 24 26  1  0  0  0  0
 15 27  1  6  0  0  0
M  END
>  <Name>
Methicillin

>  <CAS #>
61-32-5

>  <human Clearance (mL/min/kg)>
6.6

>  <Primary mechanism (metabolic, biliary or renal)>
renal

>  <seqId>
577.0

>  <Code (mechanism and clearance degree index)>
R1

>  < Five M1 and R1 test groups>
R1_5

>  <formamide>
0

>  <prodrug phosphates>
0

>  <VolSurf_V>
779.125

>  <VolSurf_S>
527.639

>  <VolSurf_R>
1.47663

>  <VolSurf_G>
1.46275

>  <VolSurf_IW1>
0.132526

>  <VolSurf_IW2>
0.332893

>  <VolSurf_IW3>
0.701503

>  <VolSurf_IW4>
1.02754

>  <VolSurf_ID1>
0.0765947

>  <VolSurf_ID2>
0.166771

>  <VolSurf_ID3>
0.228229

>  <VolSurf_ID4>
0.279068

>  <VolSurf_HL1>
6.21244

>  <VolSurf_HL2>
5.82051

>  <VolSurf_A>
7.62158

>  <VolSurf_CP>
0.171176

>  <VolSurf_POL>
35.705

>  <VolSurf_MW>
379.407

>  <VolSurf_FLEX>
1.0773

>  <VolSurf_FLEX_RB>
0.1197

>  <VolSurf_NCC>
1.0

>  <VolSurf_LOGP n-Oct>
1.72

>  <VolSurf_LOGP c-Hex>
-1.429

>  <VolSurf_PSA>
129.93

>  <VolSurf_HSA>
397.709

>  <VolSurf_PSAR>
0.246248

>  <VolSurf_PHSAR>
0.326696

>  <VolSurf_LgD5>
-0.416082

>  <VolSurf_LgD6>
-1.22271

>  <VolSurf_LgD7>
-1.5641

>  <VolSurf_LgD7.5>
-1.60546

>  <VolSurf_LgD8>
-1.61941

>  <VolSurf_LgD9>
-1.62551

>  <VolSurf_LgD10>
-1.62766

>  <VolSurf_AUS7.4>
0.0

>  <VolSurf_%FU4>
6.46312

>  <VolSurf_%FU5>
0.686229

>  <VolSurf_%FU6>
0.0690493

>  <VolSurf_%FU7>
0.0069092

>  <VolSurf_%FU8>
6.90938E-4

>  <VolSurf_%FU9>
6.90691E-5

>  <VolSurf_%FU10>
6.8819E-6

>  <ID>
281

>  <MOKAID>
282

>  <Clearance Route>
renal

>  <PC1>
-1.49163

>  <PC2>
1.17015

$$$$
Methotrexate
  -OEChem-08301611272D

 33 35  0     1  0  0  0  0  0999 V2000
   -1.7335    0.9975    0.0000 C   0  0  0  0  0  0  0  0  0  0  0  0
   -1.7320   -0.0025    0.0000 N   0  0  3  0  0  0  0  0  0  0  0  0
   -0.8653   -0.5012    0.0000 C   0  0  0  0  0  0  0  0  0  0  0  0
    0.0000    0.0000    0.0000 C   0  0  0  0  0  0  0  0  0  0  0  0
   -0.0000    1.0057    0.0000 C   0  0  0  0  0  0  0  0  0  0  0  0
    0.8679    1.5135    0.0000 N   0  0  0  0  0  0  0  0  0  0  0  0
    1.7358    1.0057    0.0000 C   0  0  0  0  0  0  0  0  0  0  0  0
    2.6012    1.5124    0.0000 N   0  0  0  0  0  0  0  0  0  0  0  0
    3.4735    1.0079    0.0000 C   0  0  0  0  0  0  0  0  0  0  0  0
    4.3394    1.5081    0.0000 N   0  0  0  0  0  0  0  0  0  0  0  0
    3.4748    0.0022    0.0000 N   0  0  0  0  0  0  0  0  0  0  0  0
    2.6038   -0.4989    0.0000 C   0  0  0  0  0  0  0  0  0  0  0  0
    2.6037   -1.4989    0.0000 N   0  0  0  0  0  0  0  0  0  0  0  0
    1.7371   -0.0000    0.0000 C   0  0  0  0  0  0  0  0  0  0  0  0
    0.8679   -0.4978    0.0000 N   0  0  0  0  0  0  0  0  0  0  0  0
   -2.5974   -0.5037    0.0000 C   0  0  0  0  0  0  0  0  0  0  0  0
   -2.5930   -1.5089    0.0000 C   0  0  0  0  0  0  0  0  0  0  0  0
   -3.4583   -2.0102    0.0000 C   0  0  0  0  0  0  0  0  0  0  0  0
   -4.3280   -1.5165    0.0000 C   0  0  0  0  0  0  0  0  0  0  0  0
   -4.3323   -0.5113    0.0000 C   0  0  0  0  0  0  0  0  0  0  0  0
   -3.4671    0.0002    0.0000 C   0  0  0  0  0  0  0  0  0  0  0  0
   -5.1911   -2.0215    0.0000 C   0  0  0  0  0  0  0  0  0  0  0  0
   -6.0600   -1.5265    0.0000 O   0  0  0  0  0  0  0  0  0  0  0  0
   -5.1852   -3.0215    0.0000 N   0  0  0  0  0  0  0  0  0  0  0  0
   -6.0483   -3.5265    0.0000 C   0  0  1  0  0  0  0  0  0  0  0  0
   -6.0425   -4.5265    0.0000 C   0  0  0  0  0  0  0  0  0  0  0  0
   -5.1736   -5.0214    0.0000 C   0  0  0  0  0  0  0  0  0  0  0  0
   -5.1678   -6.0214    0.0000 C   0  0  0  0  0  0  0  0  0  0  0  0
   -6.0309   -6.5265    0.0000 O   0  0  0  0  0  0  0  0  0  0  0  0
   -4.2988   -6.5164    0.0000 O   0  0  0  0  0  0  0  0  0  0  0  0
   -6.9173   -3.0316    0.0000 C   0  0  0  0  0  0  0  0  0  0  0  0
   -6.9231   -2.0316    0.0000 O   0  0  0  0  0  0  0  0  0  0  0  0
   -7.7804   -3.5366    0.0000 O   0  0  0  0  0  0  0  0  0  0  0  0
  1  2  1  0  0  0  0
  2  3  1  0  0  0  0
  3  4  1  0  0  0  0
  4 15  2  0  0  0  0
  4  5  1  0  0  0  0
  5  6  2  0  0  0  0
  6  7  1  0  0  0  0
  7 14  2  0  0  0  0
  7  8  1  0  0  0  0
  8  9  2  0  0  0  0
  9 10  1  0  0  0  0
  9 11  1  0  0  0  0
 11 12  2  0  0  0  0
 12 13  1  0  0  0  0
 12 14  1  0  0  0  0
 14 15  1  0  0  0  0
  2 16  1  0  0  0  0
 16 21  2  0  0  0  0
 16 17  1  0  0  0  0
 17 18  2  0  0  0  0
 18 19  1  0  0  0  0
 19 20  2  0  0  0  0
 20 21  1  0  0  0  0
 19 22  1  0  0  0  0
 22 23  2  0  0  0  0
 22 24  1  0  0  0  0
 24 25  1  0  0  0  0
 25 26  1  1  0  0  0
 26 27  1  0  0  0  0
 27 28  1  0  0  0  0
 28 29  2  0  0  0  0
 28 30  1  0  0  0  0
 25 31  1  0  0  0  0
 31 32  2  0  0  0  0
 31 33  1  0  0  0  0
M  END
>  <Name>
Methotrexate

>  <CAS #>
59-05-2

>  <human Clearance (mL/min/kg)>
2.1

>  <Primary mechanism (metabolic, biliary or renal)>
renal

>  <seqId>
580.0

>  <Code (mechanism and clearance degree index)>
R1

>  < Five M1 and R1 test groups>
R1_5

>  <formamide>
0

>  <prodrug phosphates>
0

>  <VolSurf_V>
906.875

>  <VolSurf_S>
625.356

>  <VolSurf_R>
1.45017

>  <VolSurf_G>
1.6215

>  <VolSurf_IW1>
0.0692785

>  <VolSurf_IW2>
0.133486

>  <VolSurf_IW3>
0.310885

>  <VolSurf_IW4>
0.42723

>  <VolSurf_ID1>
0.0963889

>  <VolSurf_ID2>
0.185474

>  <VolSurf_ID3>
0.251199

>  <VolSurf_ID4>
0.308536

>  <VolSurf_HL1>
5.82864

>  <VolSurf_HL2>
4.475

>  <VolSurf_A>
5.98943

>  <VolSurf_CP>
0.232613

>  <VolSurf_POL>
44.055

>  <VolSurf_MW>
452.423

>  <VolSurf_FLEX>
2.95548

>  <VolSurf_FLEX_RB>
0.24629

>  <VolSurf_NCC>
2.0

>  <VolSurf_LOGP n-Oct>
-0.247

>  <VolSurf_LOGP c-Hex>
-8.69

>  <VolSurf_PSA>
226.91

>  <VolSurf_HSA>
398.446

>  <VolSurf_PSAR>
0.362849

>  <VolSurf_PHSAR>
0.569487

>  <VolSurf_LgD5>
-2.88495

>  <VolSurf_LgD6>
-3.98293

>  <VolSurf_LgD7>
-5.75451

>  <VolSurf_LgD7.5>
-6.5293

>  <VolSurf_LgD8>
-6.8651

>  <VolSurf_LgD9>
-6.93658

>  <VolSurf_LgD10>
-6.93798

>  <VolSurf_AUS7.4>
0.0

>  <VolSurf_%FU4>
0.0

>  <VolSurf_%FU5>
0.0

>  <VolSurf_%FU6>
0.0

>  <VolSurf_%FU7>
0.0

>  <VolSurf_%FU8>
0.0

>  <VolSurf_%FU9>
0.0

>  <VolSurf_%FU10>
0.0

>  <ID>
282

>  <MOKAID>
283

>  <Clearance Route>
renal

>  <PC1>
-5.71555

>  <PC2>
-0.14059000000000002

$$$$
Methylphenidate
  -OEChem-08301611272D

 17 18  0     1  0  0  0  0  0999 V2000
    4.3316    1.4925    0.0000 C   0  0  0  0  0  0  0  0  0  0  0  0
    3.4670    1.9950    0.0000 O   0  0  0  0  0  0  0  0  0  0  0  0
    2.5995    1.4976    0.0000 C   0  0  0  0  0  0  0  0  0  0  0  0
    2.5966    0.4976    0.0000 O   0  0  0  0  0  0  0  0  0  0  0  0
    1.7350    2.0001    0.0000 C   0  0  3  0  0  0  0  0  0  0  0  0
    0.8675    1.5027    0.0000 C   0  0  3  0  0  0  0  0  0  0  0  0
    0.8675    0.4975    0.0000 C   0  0  0  0  0  0  0  0  0  0  0  0
    0.0000    0.0000    0.0000 C   0  0  0  0  0  0  0  0  0  0  0  0
   -0.8675    0.4975    0.0000 C   0  0  0  0  0  0  0  0  0  0  0  0
   -0.8675    1.5027    0.0000 C   0  0  0  0  0  0  0  0  0  0  0  0
    0.0000    2.0104    0.0000 N   0  0  0  0  0  0  0  0  0  0  0  0
    1.7379    3.0001    0.0000 C   0  0  0  0  0  0  0  0  0  0  0  0
    0.8674    3.5027    0.0000 C   0  0  0  0  0  0  0  0  0  0  0  0
    0.8703    4.5028    0.0000 C   0  0  0  0  0  0  0  0  0  0  0  0
    1.7349    5.0053    0.0000 C   0  0  0  0  0  0  0  0  0  0  0  0
    2.6054    4.5027    0.0000 C   0  0  0  0  0  0  0  0  0  0  0  0
    2.6114    3.4976    0.0000 C   0  0  0  0  0  0  0  0  0  0  0  0
  1  2  1  0  0  0  0
  2  3  1  0  0  0  0
  3  4  2  0  0  0  0
  3  5  1  0  0  0  0
  5  6  1  0  0  0  0
  6 11  1  0  0  0  0
  6  7  1  0  0  0  0
  7  8  1  0  0  0  0
  8  9  1  0  0  0  0
  9 10  1  0  0  0  0
 10 11  1  0  0  0  0
  5 12  1  0  0  0  0
 12 17  2  0  0  0  0
 12 13  1  0  0  0  0
 13 14  2  0  0  0  0
 14 15  1  0  0  0  0
 15 16  2  0  0  0  0
 16 17  1  0  0  0  0
M  END
>  <Name>
Methylphenidate

>  <CAS #>
113-45-1

>  <human Clearance (mL/min/kg)>
0.55

>  <Primary mechanism (metabolic, biliary or renal)>
metabolic

>  <seqId>
584.0

>  <Code (mechanism and clearance degree index)>
M1

>  < Five M1 and R1 test groups>
M1_5

>  <formamide>
0

>  <prodrug phosphates>
0

>  <VolSurf_V>
588.625

>  <VolSurf_S>
417.908

>  <VolSurf_R>
1.4085

>  <VolSurf_G>
1.36476

>  <VolSurf_IW1>
0.0421179

>  <VolSurf_IW2>
0.156421

>  <VolSurf_IW3>
0.535751

>  <VolSurf_IW4>
0.888809

>  <VolSurf_ID1>
0.03832

>  <VolSurf_ID2>
0.0639663

>  <VolSurf_ID3>
0.27746

>  <VolSurf_ID4>
0.0

>  <VolSurf_HL1>
5.4

>  <VolSurf_HL2>
14.3846

>  <VolSurf_A>
2.89664

>  <VolSurf_CP>
0.336804

>  <VolSurf_POL>
29.337

>  <VolSurf_MW>
234.314

>  <VolSurf_FLEX>
1.07524

>  <VolSurf_FLEX_RB>
0.215047

>  <VolSurf_NCC>
1.0

>  <VolSurf_LOGP n-Oct>
2.132

>  <VolSurf_LOGP c-Hex>
2.027

>  <VolSurf_PSA>
49.88

>  <VolSurf_HSA>
368.028

>  <VolSurf_PSAR>
0.119356

>  <VolSurf_PHSAR>
0.135533

>  <VolSurf_LgD5>
-1.25726

>  <VolSurf_LgD6>
-0.490501

>  <VolSurf_LgD7>
0.469121

>  <VolSurf_LgD7.5>
0.946822

>  <VolSurf_LgD8>
1.38882

>  <VolSurf_LgD9>
1.96946

>  <VolSurf_LgD10>
2.11272

>  <VolSurf_AUS7.4>
0.773942

>  <VolSurf_%FU4>
0.00220233

>  <VolSurf_%FU5>
0.0220189

>  <VolSurf_%FU6>
0.219754

>  <VolSurf_%FU7>
2.15492

>  <VolSurf_%FU8>
18.0488

>  <VolSurf_%FU9>
68.7732

>  <VolSurf_%FU10>
95.6567

>  <ID>
283

>  <MOKAID>
284

>  <Clearance Route>
metabolic

>  <PC1>
1.51155

>  <PC2>
0.903863

$$$$
Methylprednisolone
  -OEChem-08301611272D

 30 33  0     1  0  0  0  0  0999 V2000
    2.6036   -1.4989    0.0000 C   0  0  0  0  0  0  0  0  0  0  0  0
    2.6037   -0.4989    0.0000 C   0  0  1  0  0  0  0  0  0  0  0  0
    3.4748    0.0023    0.0000 C   0  0  0  0  0  0  0  0  0  0  0  0
    3.4759    1.0071    0.0000 C   0  0  1  0  0  0  0  0  0  0  0  0
    4.3477    1.5084    0.0000 C   0  0  2  0  0  0  0  0  0  0  0  0
    6.0915    1.5061    0.0000 C   0  0  0  0  0  0  0  0  0  0  0  0
    6.0928    2.5162    0.0000 C   0  0  0  0  0  0  0  0  0  0  0  0
    5.2187    3.0279    0.0000 C   0  0  2  0  0  0  0  0  0  0  0  0
    4.5742    3.7925    0.0000 O   0  0  0  0  0  0  0  0  0  0  0  0
    5.8629    3.7927    0.0000 C   0  0  0  0  0  0  0  0  0  0  0  0
    6.8474    3.6172    0.0000 O   0  0  0  0  0  0  0  0  0  0  0  0
    5.5227    4.7331    0.0000 C   0  0  0  0  0  0  0  0  0  0  0  0
    6.1669    5.4979    0.0000 O   0  0  0  0  0  0  0  0  0  0  0  0
    4.3490    2.5184    0.0000 C   0  0  2  0  0  0  0  0  0  0  0  0
    5.2163    2.0206    0.0000 C   0  0  0  0  0  0  0  0  0  0  0  0
    3.4743    3.0237    0.0000 C   0  0  0  0  0  0  0  0  0  0  0  0
    2.5967    2.5196    0.0000 C   0  0  2  0  0  0  0  0  0  0  0  0
    1.7301    3.0186    0.0000 O   0  0  0  0  0  0  0  0  0  0  0  0
    2.6012    1.5123    0.0000 C   0  0  2  0  0  0  0  0  0  0  0  0
    1.7358    1.0056    0.0000 C   0  0  1  0  0  0  0  0  0  0  0  0
    1.7357    2.0056    0.0000 C   0  0  0  0  0  0  0  0  0  0  0  0
    0.8679    1.5135    0.0000 C   0  0  0  0  0  0  0  0  0  0  0  0
   -0.0000    1.0056    0.0000 C   0  0  0  0  0  0  0  0  0  0  0  0
   -0.0000   -0.0000    0.0000 C   0  0  0  0  0  0  0  0  0  0  0  0
   -0.8653   -0.5013    0.0000 O   0  0  0  0  0  0  0  0  0  0  0  0
    0.8679   -0.4977    0.0000 C   0  0  0  0  0  0  0  0  0  0  0  0
    1.7371   -0.0000    0.0000 C   0  0  0  0  0  0  0  0  0  0  0  0
    4.3412    0.5059    0.0000 H   0  0  0  0  0  0  0  0  0  0  0  0
    4.6050    0.5421    0.0000 H   0  0  0  0  0  0  0  0  0  0  0  0
    1.7325    2.0077    0.0000 H   0  0  0  0  0  0  0  0  0  0  0  0
  2  1  1  6  0  0  0
  2 27  1  0  0  0  0
  2  3  1  0  0  0  0
  3  4  1  0  0  0  0
  4 19  1  0  0  0  0
  4  5  1  0  0  0  0
  5 14  1  0  0  0  0
  5  6  1  0  0  0  0
  6  7  1  0  0  0  0
  7  8  1  0  0  0  0
  8  9  1  6  0  0  0
  8 10  1  0  0  0  0
 10 11  2  0  0  0  0
 10 12  1  0  0  0  0
 12 13  1  0  0  0  0
  8 14  1  0  0  0  0
 14 15  1  1  0  0  0
 14 16  1  0  0  0  0
 16 17  1  0  0  0  0
 17 18  1  1  0  0  0
 17 19  1  0  0  0  0
 19 20  1  0  0  0  0
 20 27  1  0  0  0  0
 20 21  1  1  0  0  0
 20 22  1  0  0  0  0
 22 23  2  0  0  0  0
 23 24  1  0  0  0  0
 24 25  2  0  0  0  0
 24 26  1  0  0  0  0
 26 27  2  0  0  0  0
  4 28  1  1  0  0  0
  5 29  1  6  0  0  0
 19 30  1  6  0  0  0
M  END
>  <Name>
Methylprednisolone

>  <CAS #>
83-43-2

>  <human Clearance (mL/min/kg)>
6.1

>  <Primary mechanism (metabolic, biliary or renal)>
metabolic

>  <seqId>
585.0

>  <Code (mechanism and clearance degree index)>
M1

>  < Five M1 and R1 test groups>
M1_2

>  <formamide>
0

>  <prodrug phosphates>
0

>  <VolSurf_V>
759.75

>  <VolSurf_S>
491.281

>  <VolSurf_R>
1.54647

>  <VolSurf_G>
1.34771

>  <VolSurf_IW1>
0.0862538

>  <VolSurf_IW2>
0.192961

>  <VolSurf_IW3>
0.36017

>  <VolSurf_IW4>
0.420918

>  <VolSurf_ID1>
0.0642328

>  <VolSurf_ID2>
0.16264

>  <VolSurf_ID3>
0.276828

>  <VolSurf_ID4>
0.357492

>  <VolSurf_HL1>
7.81667

>  <VolSurf_HL2>
9.0122

>  <VolSurf_A>
6.16745

>  <VolSurf_CP>
0.135185

>  <VolSurf_POL>
39.165

>  <VolSurf_MW>
374.47

>  <VolSurf_FLEX>
0.299653

>  <VolSurf_FLEX_RB>
0.0374566

>  <VolSurf_NCC>
0.0

>  <VolSurf_LOGP n-Oct>
1.99

>  <VolSurf_LOGP c-Hex>
-0.207

>  <VolSurf_PSA>
94.83

>  <VolSurf_HSA>
396.451

>  <VolSurf_PSAR>
0.193026

>  <VolSurf_PHSAR>
0.239197

>  <VolSurf_LgD5>
1.99

>  <VolSurf_LgD6>
1.99

>  <VolSurf_LgD7>
1.99

>  <VolSurf_LgD7.5>
1.98999

>  <VolSurf_LgD8>
1.98998

>  <VolSurf_LgD9>
1.98977

>  <VolSurf_LgD10>
1.98768

>  <VolSurf_AUS7.4>
2.0

>  <VolSurf_%FU4>
100.0

>  <VolSurf_%FU5>
100.0

>  <VolSurf_%FU6>
99.9999

>  <VolSurf_%FU7>
99.9995

>  <VolSurf_%FU8>
99.9946

>  <VolSurf_%FU9>
99.9464

>  <VolSurf_%FU10>
99.466

>  <ID>
284

>  <MOKAID>
285

>  <Clearance Route>
metabolic

>  <PC1>
3.11272

>  <PC2>
0.852318

$$$$
Metoclopramide
  -OEChem-08301611272D

 20 20  0     0  0  0  0  0  0999 V2000
   -5.1918   -5.0050    0.0000 C   0  0  0  0  0  0  0  0  0  0  0  0
   -4.3265   -4.5038    0.0000 C   0  0  0  0  0  0  0  0  0  0  0  0
   -4.3280   -3.5038    0.0000 N   0  0  0  0  0  0  0  0  0  0  0  0
   -5.1947   -3.0050    0.0000 C   0  0  0  0  0  0  0  0  0  0  0  0
   -6.0600   -3.5063    0.0000 C   0  0  0  0  0  0  0  0  0  0  0  0
   -3.4627   -3.0025    0.0000 C   0  0  0  0  0  0  0  0  0  0  0  0
   -3.4641   -2.0025    0.0000 C   0  0  0  0  0  0  0  0  0  0  0  0
   -2.5988   -1.5013    0.0000 N   0  0  0  0  0  0  0  0  0  0  0  0
   -2.6003   -0.5013    0.0000 C   0  0  0  0  0  0  0  0  0  0  0  0
   -3.4670   -0.0025    0.0000 O   0  0  0  0  0  0  0  0  0  0  0  0
   -1.7350   -0.0000    0.0000 C   0  0  0  0  0  0  0  0  0  0  0  0
   -0.8675   -0.4975    0.0000 C   0  0  0  0  0  0  0  0  0  0  0  0
    0.0000    0.0000    0.0000 C   0  0  0  0  0  0  0  0  0  0  0  0
    0.8653   -0.5013    0.0000 Cl  0  0  0  0  0  0  0  0  0  0  0  0
   -0.0000    1.0052    0.0000 C   0  0  0  0  0  0  0  0  0  0  0  0
    0.8675    1.5026    0.0000 N   0  0  0  0  0  0  0  0  0  0  0  0
   -0.8675    1.5129    0.0000 C   0  0  0  0  0  0  0  0  0  0  0  0
   -1.7350    1.0052    0.0000 C   0  0  0  0  0  0  0  0  0  0  0  0
   -2.6025    1.5026    0.0000 O   0  0  0  0  0  0  0  0  0  0  0  0
   -3.4670    1.0001    0.0000 C   0  0  0  0  0  0  0  0  0  0  0  0
  1  2  1  0  0  0  0
  2  3  1  0  0  0  0
  3  4  1  0  0  0  0
  4  5  1  0  0  0  0
  3  6  1  0  0  0  0
  6  7  1  0  0  0  0
  7  8  1  0  0  0  0
  8  9  1  0  0  0  0
  9 10  2  0  0  0  0
  9 11  1  0  0  0  0
 11 18  2  0  0  0  0
 11 12  1  0  0  0  0
 12 13  2  0  0  0  0
 13 14  1  0  0  0  0
 13 15  1  0  0  0  0
 15 16  1  0  0  0  0
 15 17  2  0  0  0  0
 17 18  1  0  0  0  0
 18 19  1  0  0  0  0
 19 20  1  0  0  0  0
M  END
>  <Name>
Metoclopramide

>  <CAS #>
364-62-5

>  <human Clearance (mL/min/kg)>
5.7

>  <Primary mechanism (metabolic, biliary or renal)>
metabolic

>  <seqId>
587.0

>  <Code (mechanism and clearance degree index)>
M1

>  < Five M1 and R1 test groups>
M1_4

>  <formamide>
0

>  <prodrug phosphates>
0

>  <VolSurf_V>
715.5

>  <VolSurf_S>
505.891

>  <VolSurf_R>
1.41434

>  <VolSurf_G>
1.49537

>  <VolSurf_IW1>
0.0473393

>  <VolSurf_IW2>
0.157625

>  <VolSurf_IW3>
0.427922

>  <VolSurf_IW4>
0.875425

>  <VolSurf_ID1>
0.0279944

>  <VolSurf_ID2>
0.119066

>  <VolSurf_ID3>
0.1741

>  <VolSurf_ID4>
0.205248

>  <VolSurf_HL1>
1.00525

>  <VolSurf_HL2>
0.712

>  <VolSurf_A>
3.57449

>  <VolSurf_CP>
1.18364

>  <VolSurf_POL>
33.702

>  <VolSurf_MW>
300.804

>  <VolSurf_FLEX>
1.72194

>  <VolSurf_FLEX_RB>
0.15654

>  <VolSurf_NCC>
1.0

>  <VolSurf_LOGP n-Oct>
1.917

>  <VolSurf_LOGP c-Hex>
-1.275

>  <VolSurf_PSA>
77.96

>  <VolSurf_HSA>
427.931

>  <VolSurf_PSAR>
0.154104

>  <VolSurf_PHSAR>
0.182179

>  <VolSurf_LgD5>
-1.95172

>  <VolSurf_LgD6>
-1.00641

>  <VolSurf_LgD7>
-0.0167906

>  <VolSurf_LgD7.5>
0.471979

>  <VolSurf_LgD8>
0.939392

>  <VolSurf_LgD9>
1.6498

>  <VolSurf_LgD10>
1.88061

>  <VolSurf_AUS7.4>
0.552754

>  <VolSurf_%FU4>
0.00117547

>  <VolSurf_%FU5>
0.0117637

>  <VolSurf_%FU6>
0.117523

>  <VolSurf_%FU7>
1.16294

>  <VolSurf_%FU8>
10.5275

>  <VolSurf_%FU9>
54.0503

>  <VolSurf_%FU10>
91.9628

>  <ID>
285

>  <MOKAID>
286

>  <Clearance Route>
metabolic

>  <PC1>
0.688018

>  <PC2>
0.5944649999999999

$$$$
Metolazone
  -OEChem-08301611272D

 24 26  0     1  0  0  0  0  0999 V2000
    4.3394    1.5082    0.0000 C   0  0  0  0  0  0  0  0  0  0  0  0
    3.4735    1.0079    0.0000 C   0  0  3  0  0  0  0  0  0  0  0  0
    2.6012    1.5123    0.0000 N   0  0  0  0  0  0  0  0  0  0  0  0
    1.7358    1.0056    0.0000 C   0  0  0  0  0  0  0  0  0  0  0  0
    0.8679    1.5135    0.0000 C   0  0  0  0  0  0  0  0  0  0  0  0
    0.0000    1.0056    0.0000 C   0  0  0  0  0  0  0  0  0  0  0  0
   -0.8675    1.5031    0.0000 Cl  0  0  0  0  0  0  0  0  0  0  0  0
    0.0000    0.0000    0.0000 C   0  0  0  0  0  0  0  0  0  0  0  0
    0.8679   -0.4977    0.0000 C   0  0  0  0  0  0  0  0  0  0  0  0
    1.7371    0.0000    0.0000 C   0  0  0  0  0  0  0  0  0  0  0  0
    2.6038   -0.4989    0.0000 C   0  0  0  0  0  0  0  0  0  0  0  0
    2.6037   -1.4989    0.0000 O   0  0  0  0  0  0  0  0  0  0  0  0
    3.4748    0.0023    0.0000 N   0  0  0  0  0  0  0  0  0  0  0  0
    4.3408   -0.4978    0.0000 C   0  0  0  0  0  0  0  0  0  0  0  0
    5.2076    0.0009    0.0000 C   0  0  0  0  0  0  0  0  0  0  0  0
    6.0758   -0.4954    0.0000 C   0  0  0  0  0  0  0  0  0  0  0  0
    6.0772   -1.5006    0.0000 C   0  0  0  0  0  0  0  0  0  0  0  0
    5.2104   -2.0095    0.0000 C   0  0  0  0  0  0  0  0  0  0  0  0
    4.3422   -1.5030    0.0000 C   0  0  0  0  0  0  0  0  0  0  0  0
    3.4754   -2.0016    0.0000 C   0  0  0  0  0  0  0  0  0  0  0  0
   -0.8653   -0.5013    0.0000 S   0  0  0  0  0  0  0  0  0  0  0  0
   -0.3640   -1.3666    0.0000 O   0  0  0  0  0  0  0  0  0  0  0  0
   -1.3666    0.3640    0.0000 O   0  0  0  0  0  0  0  0  0  0  0  0
   -1.7306   -1.0025    0.0000 N   0  0  0  0  0  0  0  0  0  0  0  0
  1  2  1  0  0  0  0
  2 13  1  0  0  0  0
  2  3  1  0  0  0  0
  3  4  1  0  0  0  0
  4 10  2  0  0  0  0
  4  5  1  0  0  0  0
  5  6  2  0  0  0  0
  6  7  1  0  0  0  0
  6  8  1  0  0  0  0
  8  9  2  0  0  0  0
  9 10  1  0  0  0  0
 10 11  1  0  0  0  0
 11 12  2  0  0  0  0
 11 13  1  0  0  0  0
 13 14  1  0  0  0  0
 14 19  2  0  0  0  0
 14 15  1  0  0  0  0
 15 16  2  0  0  0  0
 16 17  1  0  0  0  0
 17 18  2  0  0  0  0
 18 19  1  0  0  0  0
 19 20  1  0  0  0  0
  8 21  1  0  0  0  0
 21 22  2  0  0  0  0
 21 23  2  0  0  0  0
 21 24  1  0  0  0  0
M  END
>  <Name>
Metolazone

>  <CAS #>
17560-51-9

>  <human Clearance (mL/min/kg)>
1.4

>  <Primary mechanism (metabolic, biliary or renal)>
renal

>  <seqId>
589.0

>  <Code (mechanism and clearance degree index)>
R1

>  < Five M1 and R1 test groups>
R1_1

>  <formamide>
0

>  <prodrug phosphates>
0

>  <VolSurf_V>
725.375

>  <VolSurf_S>
489.846

>  <VolSurf_R>
1.48082

>  <VolSurf_G>
1.4054

>  <VolSurf_IW1>
0.0972236

>  <VolSurf_IW2>
0.291462

>  <VolSurf_IW3>
0.555718

>  <VolSurf_IW4>
0.860397

>  <VolSurf_ID1>
0.067276

>  <VolSurf_ID2>
0.106556

>  <VolSurf_ID3>
0.12925

>  <VolSurf_ID4>
0.150585

>  <VolSurf_HL1>
2.01609

>  <VolSurf_HL2>
1.14978

>  <VolSurf_A>
5.29496

>  <VolSurf_CP>
0.80849

>  <VolSurf_POL>
37.088

>  <VolSurf_MW>
365.834

>  <VolSurf_FLEX>
0.441731

>  <VolSurf_FLEX_RB>
0.0883462

>  <VolSurf_NCC>
0.0

>  <VolSurf_LOGP n-Oct>
3.479

>  <VolSurf_LOGP c-Hex>
-0.01

>  <VolSurf_PSA>
100.292

>  <VolSurf_HSA>
389.554

>  <VolSurf_PSAR>
0.204743

>  <VolSurf_PHSAR>
0.257455

>  <VolSurf_LgD5>
3.47895

>  <VolSurf_LgD6>
3.4789

>  <VolSurf_LgD7>
3.47807

>  <VolSurf_LgD7.5>
3.47606

>  <VolSurf_LgD8>
3.46976

>  <VolSurf_LgD9>
3.3944

>  <VolSurf_LgD10>
2.9808

>  <VolSurf_AUS7.4>
2.0

>  <VolSurf_%FU4>
99.903

>  <VolSurf_%FU5>
99.9882

>  <VolSurf_%FU6>
99.9775

>  <VolSurf_%FU7>
99.7852

>  <VolSurf_%FU8>
97.8939

>  <VolSurf_%FU9>
82.2952

>  <VolSurf_%FU10>
31.7322

>  <ID>
286

>  <MOKAID>
287

>  <Clearance Route>
metabolic

>  <PC1>
3.9285900000000002

>  <PC2>
0.781032

$$$$
Metoprolol
  -OEChem-08301611272D

 19 19  0     1  0  0  0  0  0999 V2000
    4.3316    1.4925    0.0000 C   0  0  0  0  0  0  0  0  0  0  0  0
    3.4670    1.9950    0.0000 O   0  0  0  0  0  0  0  0  0  0  0  0
    2.5995    1.4976    0.0000 C   0  0  0  0  0  0  0  0  0  0  0  0
    1.7350    2.0001    0.0000 C   0  0  0  0  0  0  0  0  0  0  0  0
    0.8675    1.5027    0.0000 C   0  0  0  0  0  0  0  0  0  0  0  0
    0.8675    0.4975    0.0000 C   0  0  0  0  0  0  0  0  0  0  0  0
    0.0000    0.0000    0.0000 C   0  0  0  0  0  0  0  0  0  0  0  0
   -0.8675    0.4975    0.0000 C   0  0  0  0  0  0  0  0  0  0  0  0
   -1.7328   -0.0038    0.0000 O   0  0  0  0  0  0  0  0  0  0  0  0
   -1.7313   -1.0038    0.0000 C   0  0  0  0  0  0  0  0  0  0  0  0
   -2.5966   -1.5050    0.0000 C   0  0  3  0  0  0  0  0  0  0  0  0
   -3.4634   -1.0063    0.0000 O   0  0  0  0  0  0  0  0  0  0  0  0
   -2.5952   -2.5050    0.0000 C   0  0  0  0  0  0  0  0  0  0  0  0
   -3.4605   -3.0063    0.0000 N   0  0  0  0  0  0  0  0  0  0  0  0
   -3.4590   -4.0063    0.0000 C   0  0  0  0  0  0  0  0  0  0  0  0
   -2.5923   -4.5050    0.0000 C   0  0  0  0  0  0  0  0  0  0  0  0
   -4.3243   -4.5075    0.0000 C   0  0  0  0  0  0  0  0  0  0  0  0
   -0.8675    1.5027    0.0000 C   0  0  0  0  0  0  0  0  0  0  0  0
    0.0000    2.0104    0.0000 C   0  0  0  0  0  0  0  0  0  0  0  0
  1  2  1  0  0  0  0
  2  3  1  0  0  0  0
  3  4  1  0  0  0  0
  4  5  1  0  0  0  0
  5 19  2  0  0  0  0
  5  6  1  0  0  0  0
  6  7  2  0  0  0  0
  7  8  1  0  0  0  0
  8  9  1  0  0  0  0
  9 10  1  0  0  0  0
 10 11  1  0  0  0  0
 11 12  1  0  0  0  0
 11 13  1  0  0  0  0
 13 14  1  0  0  0  0
 14 15  1  0  0  0  0
 15 16  1  0  0  0  0
 15 17  1  0  0  0  0
  8 18  2  0  0  0  0
 18 19  1  0  0  0  0
M  END
>  <Name>
Metoprolol

>  <CAS #>
51384-51-1

>  <human Clearance (mL/min/kg)>
13.0

>  <Primary mechanism (metabolic, biliary or renal)>
metabolic

>  <seqId>
590.0

>  <Code (mechanism and clearance degree index)>
M1

>  < Five M1 and R1 test groups>
M1_1

>  <formamide>
0

>  <prodrug phosphates>
0

>  <VolSurf_V>
708.25

>  <VolSurf_S>
511.537

>  <VolSurf_R>
1.38455

>  <VolSurf_G>
1.53604

>  <VolSurf_IW1>
0.0653299

>  <VolSurf_IW2>
0.210087

>  <VolSurf_IW3>
0.440187

>  <VolSurf_IW4>
1.20832

>  <VolSurf_ID1>
0.0186563

>  <VolSurf_ID2>
0.057193

>  <VolSurf_ID3>
0.151516

>  <VolSurf_ID4>
0.180607

>  <VolSurf_HL1>
2.35606

>  <VolSurf_HL2>
2.29104

>  <VolSurf_A>
3.02286

>  <VolSurf_CP>
1.12698

>  <VolSurf_POL>
33.134

>  <VolSurf_MW>
268.372

>  <VolSurf_FLEX>
2.5631

>  <VolSurf_FLEX_RB>
0.197162

>  <VolSurf_NCC>
1.0

>  <VolSurf_LOGP n-Oct>
1.851

>  <VolSurf_LOGP c-Hex>
1.997

>  <VolSurf_PSA>
67.77

>  <VolSurf_HSA>
443.767

>  <VolSurf_PSAR>
0.132483

>  <VolSurf_PHSAR>
0.152715

>  <VolSurf_LgD5>
-1.52433

>  <VolSurf_LgD6>
-1.14668

>  <VolSurf_LgD7>
-0.31599

>  <VolSurf_LgD7.5>
0.162262

>  <VolSurf_LgD8>
0.638665

>  <VolSurf_LgD9>
1.44649

>  <VolSurf_LgD10>
1.78884

>  <VolSurf_AUS7.4>
0.362752

>  <VolSurf_%FU4>
6.49557E-4

>  <VolSurf_%FU5>
0.00649519

>  <VolSurf_%FU6>
0.064914

>  <VolSurf_%FU7>
0.645369

>  <VolSurf_%FU8>
6.09942

>  <VolSurf_%FU9>
39.3778

>  <VolSurf_%FU10>
86.6588

>  <ID>
287

>  <MOKAID>
288

>  <Clearance Route>
metabolic

>  <PC1>
0.86541

>  <PC2>
0.299291

$$$$
Metrizoate
  -OEChem-08301611272D

 21 21  0     0  0  0  0  0  0999 V2000
   -2.5995    1.4976    0.0000 C   0  0  0  0  0  0  0  0  0  0  0  0
   -1.7350    2.0001    0.0000 N   0  0  0  0  0  0  0  0  0  0  0  0
   -1.7379    3.0001    0.0000 C   0  0  0  0  0  0  0  0  0  0  0  0
   -0.8734    3.5027    0.0000 O   0  0  0  0  0  0  0  0  0  0  0  0
   -2.6054    3.4976    0.0000 C   0  0  0  0  0  0  0  0  0  0  0  0
   -0.8675    1.5027    0.0000 C   0  0  0  0  0  0  0  0  0  0  0  0
   -0.8675    0.4975    0.0000 C   0  0  0  0  0  0  0  0  0  0  0  0
   -1.7328   -0.0038    0.0000 I   0  0  0  0  0  0  0  0  0  0  0  0
    0.0000    0.0000    0.0000 C   0  0  0  0  0  0  0  0  0  0  0  0
    0.0000   -1.0000    0.0000 N   0  0  0  0  0  0  0  0  0  0  0  0
    0.8660   -1.5000    0.0000 C   0  0  0  0  0  0  0  0  0  0  0  0
    1.7321   -1.0000    0.0000 O   0  0  0  0  0  0  0  0  0  0  0  0
    0.8660   -2.5000    0.0000 C   0  0  0  0  0  0  0  0  0  0  0  0
    0.8675    0.4975    0.0000 C   0  0  0  0  0  0  0  0  0  0  0  0
    1.7328   -0.0038    0.0000 I   0  0  0  0  0  0  0  0  0  0  0  0
    0.8675    1.5027    0.0000 C   0  0  0  0  0  0  0  0  0  0  0  0
    1.7350    2.0001    0.0000 C   0  0  0  0  0  0  0  0  0  0  0  0
    2.5995    1.4976    0.0000 O   0  0  0  0  0  0  0  0  0  0  0  0
    1.7379    3.0001    0.0000 O   0  0  0  0  0  0  0  0  0  0  0  0
   -0.0000    2.0104    0.0000 C   0  0  0  0  0  0  0  0  0  0  0  0
   -0.0000    3.0104    0.0000 I   0  0  0  0  0  0  0  0  0  0  0  0
  1  2  1  0  0  0  0
  2  3  1  0  0  0  0
  3  4  2  0  0  0  0
  3  5  1  0  0  0  0
  2  6  1  0  0  0  0
  6 20  2  0  0  0  0
  6  7  1  0  0  0  0
  7  8  1  0  0  0  0
  7  9  2  0  0  0  0
  9 10  1  0  0  0  0
 10 11  1  0  0  0  0
 11 12  2  0  0  0  0
 11 13  1  0  0  0  0
  9 14  1  0  0  0  0
 14 15  1  0  0  0  0
 14 16  2  0  0  0  0
 16 17  1  0  0  0  0
 17 18  2  0  0  0  0
 17 19  1  0  0  0  0
 16 20  1  0  0  0  0
 20 21  1  0  0  0  0
M  END
>  <Name>
Metrizoate

>  <CAS #>
1949-45-7

>  <human Clearance (mL/min/kg)>
2.7

>  <Primary mechanism (metabolic, biliary or renal)>
renal

>  <seqId>
591.0

>  <Code (mechanism and clearance degree index)>
R1

>  < Five M1 and R1 test groups>
R1_4

>  <formamide>
0

>  <prodrug phosphates>
0

>  <VolSurf_V>
737.875

>  <VolSurf_S>
491.27

>  <VolSurf_R>
1.50198

>  <VolSurf_G>
1.38762

>  <VolSurf_IW1>
0.100333

>  <VolSurf_IW2>
0.275845

>  <VolSurf_IW3>
0.57549

>  <VolSurf_IW4>
0.824591

>  <VolSurf_ID1>
0.0442415

>  <VolSurf_ID2>
0.0988323

>  <VolSurf_ID3>
0.136036

>  <VolSurf_ID4>
0.268746

>  <VolSurf_HL1>
6.90643

>  <VolSurf_HL2>
8.28571

>  <VolSurf_A>
5.14725

>  <VolSurf_CP>
0.252917

>  <VolSurf_POL>
38.288

>  <VolSurf_MW>
626.932

>  <VolSurf_FLEX>
0.872592

>  <VolSurf_FLEX_RB>
0.124656

>  <VolSurf_NCC>
1.0

>  <VolSurf_LOGP n-Oct>
1.398

>  <VolSurf_LOGP c-Hex>
-3.765

>  <VolSurf_PSA>
95.3

>  <VolSurf_HSA>
395.97

>  <VolSurf_PSAR>
0.193987

>  <VolSurf_PHSAR>
0.240675

>  <VolSurf_LgD5>
-0.25869

>  <VolSurf_LgD6>
-1.18633

>  <VolSurf_LgD7>
-1.81136

>  <VolSurf_LgD7.5>
-1.93338

>  <VolSurf_LgD8>
-1.9804

>  <VolSurf_LgD9>
-2.00158

>  <VolSurf_LgD10>
-2.00376

>  <VolSurf_AUS7.4>
0.0

>  <VolSurf_%FU4>
18.1245

>  <VolSurf_%FU5>
2.16573

>  <VolSurf_%FU6>
0.220878

>  <VolSurf_%FU7>
0.0221318

>  <VolSurf_%FU8>
0.00221362

>  <VolSurf_%FU9>
2.21366E-4

>  <VolSurf_%FU10>
2.21366E-5

>  <ID>
288

>  <MOKAID>
289

>  <Clearance Route>
renal

>  <PC1>
-1.38198

>  <PC2>
0.5460149999999999

$$$$
Metronidazole
  -OEChem-08301611272D

 12 12  0     0  0  0  0  0  0999 V2000
    2.2646    1.2597    0.0000 C   0  0  0  0  0  0  0  0  0  0  0  0
    1.3131    0.9519    0.0000 C   0  0  0  0  0  0  0  0  0  0  0  0
    1.0014    0.0000    0.0000 N   0  0  0  0  0  0  0  0  0  0  0  0
    0.0000    0.0000    0.0000 C   0  0  0  0  0  0  0  0  0  0  0  0
   -0.3065    0.9519    0.0000 C   0  0  0  0  0  0  0  0  0  0  0  0
   -1.2577    1.2606    0.0000 N   0  0  0  0  0  0  0  0  0  0  0  0
   -2.0006    0.5911    0.0000 O   0  0  0  0  0  0  0  0  0  0  0  0
   -1.4660    2.2386    0.0000 O   0  0  0  0  0  0  0  0  0  0  0  0
    0.5007    1.5426    0.0000 N   0  0  0  0  0  0  0  0  0  0  0  0
    0.4992    2.5426    0.0000 C   0  0  0  0  0  0  0  0  0  0  0  0
   -0.3676    3.0413    0.0000 C   0  0  0  0  0  0  0  0  0  0  0  0
   -0.3691    4.0413    0.0000 O   0  0  0  0  0  0  0  0  0  0  0  0
  1  2  1  0  0  0  0
  2  9  1  0  0  0  0
  2  3  2  0  0  0  0
  3  4  1  0  0  0  0
  4  5  2  0  0  0  0
  5  6  1  0  0  0  0
  6  7  2  0  0  0  0
  6  8  2  0  0  0  0
  5  9  1  0  0  0  0
  9 10  1  0  0  0  0
 10 11  1  0  0  0  0
 11 12  1  0  0  0  0
M  END
>  <Name>
Metronidazole

>  <CAS #>
443-48-1

>  <human Clearance (mL/min/kg)>
0.85

>  <Primary mechanism (metabolic, biliary or renal)>
metabolic

>  <seqId>
592.0

>  <Code (mechanism and clearance degree index)>
M1

>  < Five M1 and R1 test groups>
M1_4

>  <formamide>
0

>  <prodrug phosphates>
0

>  <VolSurf_V>
381.125

>  <VolSurf_S>
282.257

>  <VolSurf_R>
1.35028

>  <VolSurf_G>
1.16997

>  <VolSurf_IW1>
0.0653418

>  <VolSurf_IW2>
0.119245

>  <VolSurf_IW3>
0.498681

>  <VolSurf_IW4>
0.527033

>  <VolSurf_ID1>
0.0719997

>  <VolSurf_ID2>
0.140157

>  <VolSurf_ID3>
0.185961

>  <VolSurf_ID4>
0.188298

>  <VolSurf_HL1>
2.55918

>  <VolSurf_HL2>
1.5896

>  <VolSurf_A>
2.78403

>  <VolSurf_CP>
0.993966

>  <VolSurf_POL>
15.843

>  <VolSurf_MW>
171.154

>  <VolSurf_FLEX>
0.64217

>  <VolSurf_FLEX_RB>
0.128434

>  <VolSurf_NCC>
0.0

>  <VolSurf_LOGP n-Oct>
-0.443

>  <VolSurf_LOGP c-Hex>
-2.553

>  <VolSurf_PSA>
73.02

>  <VolSurf_HSA>
209.237

>  <VolSurf_PSAR>
0.2587

>  <VolSurf_PHSAR>
0.348982

>  <VolSurf_LgD5>
-0.443949

>  <VolSurf_LgD6>
-0.443111

>  <VolSurf_LgD7>
-0.443171

>  <VolSurf_LgD7.5>
-0.443512

>  <VolSurf_LgD8>
-0.444608

>  <VolSurf_LgD9>
-0.458811

>  <VolSurf_LgD10>
-0.579953

>  <VolSurf_AUS7.4>
2.0

>  <VolSurf_%FU4>
97.8612

>  <VolSurf_%FU5>
99.7816

>  <VolSurf_%FU6>
99.9744

>  <VolSurf_%FU7>
99.9607

>  <VolSurf_%FU8>
99.6303

>  <VolSurf_%FU9>
96.4237

>  <VolSurf_%FU10>
72.9451

>  <ID>
289

>  <MOKAID>
290

>  <Clearance Route>
uncertain

>  <PC1>
1.2559

>  <PC2>
3.35696

$$$$
Mezlocillin
  -OEChem-08301611272D

 37 40  0     1  0  0  0  0  0999 V2000
    3.2824    0.1689    0.0000 C   0  0  0  0  0  0  0  0  0  0  0  0
    2.5392   -0.5002    0.0000 C   0  0  0  0  0  0  0  0  0  0  0  0
    3.2822   -1.1694    0.0000 C   0  0  0  0  0  0  0  0  0  0  0  0
    1.9514    0.3089    0.0000 S   0  0  0  0  0  0  0  0  0  0  0  0
    1.0001    0.0000    0.0000 C   0  0  2  0  0  0  0  0  0  0  0  0
    0.0000    0.0000    0.0000 C   0  0  2  0  0  0  0  0  0  0  0  0
   -0.7071    0.7071    0.0000 N   0  0  0  0  0  0  0  0  0  0  0  0
   -1.6730    0.4483    0.0000 C   0  0  0  0  0  0  0  0  0  0  0  0
   -1.9319   -0.5176    0.0000 O   0  0  0  0  0  0  0  0  0  0  0  0
   -2.3801    1.1554    0.0000 C   0  0  2  0  0  0  0  0  0  0  0  0
   -3.3461    0.8966    0.0000 N   0  0  0  0  0  0  0  0  0  0  0  0
   -3.6049   -0.0693    0.0000 C   0  0  0  0  0  0  0  0  0  0  0  0
   -2.8978   -0.7765    0.0000 O   0  0  0  0  0  0  0  0  0  0  0  0
   -4.5708   -0.3282    0.0000 N   0  0  0  0  0  0  0  0  0  0  0  0
   -4.9286   -1.2635    0.0000 C   0  0  0  0  0  0  0  0  0  0  0  0
   -5.9272   -1.2096    0.0000 C   0  0  0  0  0  0  0  0  0  0  0  0
   -6.1905   -0.2446    0.0000 N   0  0  0  0  0  0  0  0  0  0  0  0
   -5.3485    0.3031    0.0000 C   0  0  0  0  0  0  0  0  0  0  0  0
   -5.2960    1.3017    0.0000 O   0  0  0  0  0  0  0  0  0  0  0  0
   -7.1250    0.1112    0.0000 S   0  0  0  0  0  0  0  0  0  0  0  0
   -7.4809   -0.8233    0.0000 O   0  0  0  0  0  0  0  0  0  0  0  0
   -6.7691    1.0458    0.0000 O   0  0  0  0  0  0  0  0  0  0  0  0
   -8.0596    0.4671    0.0000 C   0  0  0  0  0  0  0  0  0  0  0  0
   -2.1213    2.1213    0.0000 C   0  0  0  0  0  0  0  0  0  0  0  0
   -2.8342    2.8300    0.0000 C   0  0  0  0  0  0  0  0  0  0  0  0
   -2.5754    3.7960    0.0000 C   0  0  0  0  0  0  0  0  0  0  0  0
   -1.6110    4.0604    0.0000 C   0  0  0  0  0  0  0  0  0  0  0  0
   -0.8981    3.3518    0.0000 C   0  0  0  0  0  0  0  0  0  0  0  0
   -1.1497    2.3786    0.0000 C   0  0  0  0  0  0  0  0  0  0  0  0
   -0.0000   -1.0001    0.0000 C   0  0  0  0  0  0  0  0  0  0  0  0
   -0.7071   -1.7072    0.0000 O   0  0  0  0  0  0  0  0  0  0  0  0
    1.0000   -1.0001    0.0000 N   0  0  0  0  0  0  0  0  0  0  0  0
    1.9511   -1.3093    0.0000 C   0  0  1  0  0  0  0  0  0  0  0  0
    2.2599   -2.2604    0.0000 C   0  0  0  0  0  0  0  0  0  0  0  0
    1.5907   -3.0034    0.0000 O   0  0  0  0  0  0  0  0  0  0  0  0
    3.2381   -2.4685    0.0000 O   0  0  0  0  0  0  0  0  0  0  0  0
    0.8438    0.9877    0.0000 H   0  0  0  0  0  0  0  0  0  0  0  0
  1  2  1  0  0  0  0
  2 33  1  0  0  0  0
  2  3  1  0  0  0  0
  2  4  1  0  0  0  0
  4  5  1  0  0  0  0
  5 32  1  0  0  0  0
  5  6  1  0  0  0  0
  6  7  1  1  0  0  0
  7  8  1  0  0  0  0
  8  9  2  0  0  0  0
 10  8  1  6  0  0  0
 10 11  1  0  0  0  0
 11 12  1  0  0  0  0
 12 13  2  0  0  0  0
 12 14  1  0  0  0  0
 14 18  1  0  0  0  0
 14 15  1  0  0  0  0
 15 16  1  0  0  0  0
 16 17  1  0  0  0  0
 17 18  1  0  0  0  0
 18 19  2  0  0  0  0
 17 20  1  0  0  0  0
 20 21  2  0  0  0  0
 20 22  2  0  0  0  0
 20 23  1  0  0  0  0
 10 24  1  0  0  0  0
 24 29  2  0  0  0  0
 24 25  1  0  0  0  0
 25 26  2  0  0  0  0
 26 27  1  0  0  0  0
 27 28  2  0  0  0  0
 28 29  1  0  0  0  0
  6 30  1  0  0  0  0
 30 31  2  0  0  0  0
 30 32  1  0  0  0  0
 32 33  1  0  0  0  0
 33 34  1  6  0  0  0
 34 35  2  0  0  0  0
 34 36  1  0  0  0  0
  5 37  1  6  0  0  0
M  END
>  <Name>
Mezlocillin

>  <CAS #>
51481-65-3

>  <human Clearance (mL/min/kg)>
2.1

>  <Primary mechanism (metabolic, biliary or renal)>
renal

>  <seqId>
594.0

>  <Code (mechanism and clearance degree index)>
R1

>  < Five M1 and R1 test groups>
R1_1

>  <formamide>
0

>  <prodrug phosphates>
0

>  <VolSurf_V>
1023.12

>  <VolSurf_S>
682.227

>  <VolSurf_R>
1.49968

>  <VolSurf_G>
1.63771

>  <VolSurf_IW1>
0.06627

>  <VolSurf_IW2>
0.147168

>  <VolSurf_IW3>
0.377461

>  <VolSurf_IW4>
0.718515

>  <VolSurf_ID1>
0.0508956

>  <VolSurf_ID2>
0.142967

>  <VolSurf_ID3>
0.244141

>  <VolSurf_ID4>
0.295026

>  <VolSurf_HL1>
10.1217

>  <VolSurf_HL2>
9.81373

>  <VolSurf_A>
6.83159

>  <VolSurf_CP>
0.108931

>  <VolSurf_POL>
49.292

>  <VolSurf_MW>
538.574

>  <VolSurf_FLEX>
2.87299

>  <VolSurf_FLEX_RB>
0.261181

>  <VolSurf_NCC>
1.0

>  <VolSurf_LOGP n-Oct>
1.031

>  <VolSurf_LOGP c-Hex>
-5.742

>  <VolSurf_PSA>
201.423

>  <VolSurf_HSA>
480.804

>  <VolSurf_PSAR>
0.295243

>  <VolSurf_PHSAR>
0.418928

>  <VolSurf_LgD5>
-1.17928

>  <VolSurf_LgD6>
-1.95833

>  <VolSurf_LgD7>
-2.26292

>  <VolSurf_LgD7.5>
-2.29785

>  <VolSurf_LgD8>
-2.3095

>  <VolSurf_LgD9>
-2.31445

>  <VolSurf_LgD10>
-2.31495

>  <VolSurf_AUS7.4>
0.0

>  <VolSurf_%FU4>
5.43424

>  <VolSurf_%FU5>
0.571368

>  <VolSurf_%FU6>
0.0574322

>  <VolSurf_%FU7>
0.00574619

>  <VolSurf_%FU8>
5.74648E-4

>  <VolSurf_%FU9>
5.74651E-5

>  <VolSurf_%FU10>
5.74644E-6

>  <ID>
290

>  <MOKAID>
291

>  <Clearance Route>
possible billary

>  <PC1>
-2.9790099999999997

>  <PC2>
-1.3009

$$$$
Mianserin
  -OEChem-08301611272D

 21 24  0     1  0  0  0  0  0999 V2000
    3.1091    2.1830    0.0000 N   0  0  3  0  0  0  0  0  0  0  0  0
    2.1035    2.1801    0.0000 C   0  0  1  0  0  0  0  0  0  0  0  0
    1.4720    1.3866    0.0000 C   0  0  0  0  0  0  0  0  0  0  0  0
    1.7038    0.4006    0.0000 C   0  0  0  0  0  0  0  0  0  0  0  0
    0.9712   -0.2948    0.0000 C   0  0  0  0  0  0  0  0  0  0  0  0
   -0.0000    0.0000    0.0000 C   0  0  0  0  0  0  0  0  0  0  0  0
   -0.2319    0.9860    0.0000 C   0  0  0  0  0  0  0  0  0  0  0  0
    0.5074    1.6773    0.0000 C   0  0  0  0  0  0  0  0  0  0  0  0
    2.6192   -0.0318    0.0000 C   0  0  0  0  0  0  0  0  0  0  0  0
    3.5284    0.4074    0.0000 C   0  0  0  0  0  0  0  0  0  0  0  0
    3.7392    1.3931    0.0000 C   0  0  0  0  0  0  0  0  0  0  0  0
    4.6939    1.7071    0.0000 C   0  0  0  0  0  0  0  0  0  0  0  0
    5.4423    1.0288    0.0000 C   0  0  0  0  0  0  0  0  0  0  0  0
    5.2314    0.0433    0.0000 C   0  0  0  0  0  0  0  0  0  0  0  0
    4.2724   -0.2641    0.0000 C   0  0  0  0  0  0  0  0  0  0  0  0
    1.5956    3.0447    0.0000 C   0  0  0  0  0  0  0  0  0  0  0  0
    2.0986    3.9177    0.0000 N   0  0  1  0  0  0  0  0  0  0  0  0
    1.5970    4.7828    0.0000 C   0  0  0  0  0  0  0  0  0  0  0  0
    3.1042    3.9206    0.0000 C   0  0  0  0  0  0  0  0  0  0  0  0
    3.6067    3.0505    0.0000 C   0  0  0  0  0  0  0  0  0  0  0  0
    1.1060    2.2506    0.0000 H   0  0  0  0  0  0  0  0  0  0  0  0
  1 11  1  0  0  0  0
  1 20  1  0  0  0  0
  1  2  1  0  0  0  0
  2  3  1  0  0  0  0
  3  8  2  0  0  0  0
  3  4  1  0  0  0  0
  4  5  2  0  0  0  0
  5  6  1  0  0  0  0
  6  7  2  0  0  0  0
  7  8  1  0  0  0  0
  4  9  1  0  0  0  0
  9 10  1  0  0  0  0
 10 15  2  0  0  0  0
 10 11  1  0  0  0  0
 11 12  2  0  0  0  0
 12 13  1  0  0  0  0
 13 14  2  0  0  0  0
 14 15  1  0  0  0  0
  2 16  1  0  0  0  0
 16 17  1  0  0  0  0
 17 18  1  1  0  0  0
 17 19  1  0  0  0  0
 19 20  1  0  0  0  0
  2 21  1  6  0  0  0
M  END
>  <Name>
Mianserin

>  <CAS #>
24219-97-4

>  <human Clearance (mL/min/kg)>
21.9

>  <Primary mechanism (metabolic, biliary or renal)>
metabolic

>  <seqId>
595.0

>  <Code (mechanism and clearance degree index)>
M1

>  < Five M1 and R1 test groups>
M1_1

>  <formamide>
0

>  <prodrug phosphates>
0

>  <VolSurf_V>
646.875

>  <VolSurf_S>
418.531

>  <VolSurf_R>
1.54558

>  <VolSurf_G>
1.24464

>  <VolSurf_IW1>
0.0242482

>  <VolSurf_IW2>
0.303026

>  <VolSurf_IW3>
1.16012

>  <VolSurf_IW4>
1.57302

>  <VolSurf_ID1>
0.025722

>  <VolSurf_ID2>
0.04787

>  <VolSurf_ID3>
0.0553912

>  <VolSurf_ID4>
0.0892355

>  <VolSurf_HL1>
0.0885827

>  <VolSurf_HL2>
0.0477816

>  <VolSurf_A>
7.01312

>  <VolSurf_CP>
18.3579

>  <VolSurf_POL>
34.307

>  <VolSurf_MW>
265.373

>  <VolSurf_FLEX>
1.0779E-6

>  <VolSurf_FLEX_RB>
1.0779E-6

>  <VolSurf_NCC>
1.0

>  <VolSurf_LOGP n-Oct>
3.106

>  <VolSurf_LOGP c-Hex>
3.303

>  <VolSurf_PSA>
14.42

>  <VolSurf_HSA>
404.111

>  <VolSurf_PSAR>
0.0344538

>  <VolSurf_PHSAR>
0.0356833

>  <VolSurf_LgD5>
0.288113

>  <VolSurf_LgD6>
1.04443

>  <VolSurf_LgD7>
1.98097

>  <VolSurf_LgD7.5>
2.4136

>  <VolSurf_LgD8>
2.75506

>  <VolSurf_LgD9>
3.05506

>  <VolSurf_LgD10>
3.10063

>  <VolSurf_AUS7.4>
1.2426

>  <VolSurf_%FU4>
0.00802105

>  <VolSurf_%FU5>
0.0802133

>  <VolSurf_%FU6>
0.796444

>  <VolSurf_%FU7>
7.43179

>  <VolSurf_%FU8>
44.5321

>  <VolSurf_%FU9>
88.9239

>  <VolSurf_%FU10>
98.7698

>  <ID>
291

>  <MOKAID>
292

>  <Clearance Route>
metabolic

>  <PC1>
4.18623

>  <PC2>
1.5446799999999998

$$$$
Mibefradil
  -OEChem-08301611272D

 36 39  0     1  0  0  0  0  0999 V2000
    6.3826    5.7315    0.0000 C   0  0  0  0  0  0  0  0  0  0  0  0
    6.5570    4.7468    0.0000 O   0  0  0  0  0  0  0  0  0  0  0  0
    7.4969    4.4055    0.0000 C   0  0  0  0  0  0  0  0  0  0  0  0
    7.6713    3.4208    0.0000 C   0  0  0  0  0  0  0  0  0  0  0  0
    6.9058    2.7774    0.0000 O   0  0  0  0  0  0  0  0  0  0  0  0
    8.6113    3.0795    0.0000 O   0  0  0  0  0  0  0  0  0  0  0  0
    8.7856    2.0948    0.0000 C   0  0  2  0  0  0  0  0  0  0  0  0
    7.7856    2.0947    0.0000 C   0  0  0  0  0  0  0  0  0  0  0  0
    7.2857    1.2287    0.0000 C   0  0  0  0  0  0  0  0  0  0  0  0
    6.2857    1.2286    0.0000 N   0  0  3  0  0  0  0  0  0  0  0  0
    5.7856    2.0946    0.0000 C   0  0  0  0  0  0  0  0  0  0  0  0
    5.7857    0.3626    0.0000 C   0  0  0  0  0  0  0  0  0  0  0  0
    4.7857    0.3625    0.0000 C   0  0  0  0  0  0  0  0  0  0  0  0
    4.2858   -0.5035    0.0000 C   0  0  0  0  0  0  0  0  0  0  0  0
    3.2858   -0.5036    0.0000 C   0  0  0  0  0  0  0  0  0  0  0  0
    2.6938    0.3110    0.0000 N   0  0  0  0  0  0  0  0  0  0  0  0
    1.7360   -0.0000    0.0000 C   0  0  0  0  0  0  0  0  0  0  0  0
    0.8680    0.5079    0.0000 C   0  0  0  0  0  0  0  0  0  0  0  0
    0.0000    0.0000    0.0000 C   0  0  0  0  0  0  0  0  0  0  0  0
   -0.0000   -1.0058    0.0000 C   0  0  0  0  0  0  0  0  0  0  0  0
    0.8680   -1.5037    0.0000 C   0  0  0  0  0  0  0  0  0  0  0  0
    1.7360   -1.0071    0.0000 C   0  0  0  0  0  0  0  0  0  0  0  0
    2.6938   -1.3184    0.0000 N   0  0  0  0  0  0  0  0  0  0  0  0
    8.6104    1.1045    0.0000 C   0  0  0  0  0  0  0  0  0  0  0  0
    9.3816    0.4603    0.0000 C   0  0  0  0  0  0  0  0  0  0  0  0
   10.3215    0.8017    0.0000 C   0  0  0  0  0  0  0  0  0  0  0  0
   11.0915    0.1611    0.0000 C   0  0  0  0  0  0  0  0  0  0  0  0
   12.0324    0.5012    0.0000 C   0  0  0  0  0  0  0  0  0  0  0  0
   12.7980   -0.1421    0.0000 F   0  0  0  0  0  0  0  0  0  0  0  0
   12.2064    1.4918    0.0000 C   0  0  0  0  0  0  0  0  0  0  0  0
   11.4394    2.1420    0.0000 C   0  0  0  0  0  0  0  0  0  0  0  0
   10.4968    1.7920    0.0000 C   0  0  0  0  0  0  0  0  0  0  0  0
    9.7321    2.4408    0.0000 C   0  0  2  0  0  0  0  0  0  0  0  0
    9.9077    3.4253    0.0000 C   0  0  0  0  0  0  0  0  0  0  0  0
   10.8481    3.7654    0.0000 C   0  0  0  0  0  0  0  0  0  0  0  0
    9.1429    4.0696    0.0000 C   0  0  0  0  0  0  0  0  0  0  0  0
  1  2  1  0  0  0  0
  2  3  1  0  0  0  0
  3  4  1  0  0  0  0
  4  5  2  0  0  0  0
  4  6  1  0  0  0  0
  6  7  1  0  0  0  0
  7 33  1  0  0  0  0
  7  8  1  6  0  0  0
  8  9  1  0  0  0  0
  9 10  1  0  0  0  0
 10 11  1  0  0  0  0
 10 12  1  0  0  0  0
 12 13  1  0  0  0  0
 13 14  1  0  0  0  0
 14 15  1  0  0  0  0
 15 23  1  0  0  0  0
 15 16  2  0  0  0  0
 16 17  1  0  0  0  0
 17 22  2  0  0  0  0
 17 18  1  0  0  0  0
 18 19  2  0  0  0  0
 19 20  1  0  0  0  0
 20 21  2  0  0  0  0
 21 22  1  0  0  0  0
 22 23  1  0  0  0  0
  7 24  1  0  0  0  0
 24 25  1  0  0  0  0
 25 26  1  0  0  0  0
 26 32  2  0  0  0  0
 26 27  1  0  0  0  0
 27 28  2  0  0  0  0
 28 29  1  0  0  0  0
 28 30  1  0  0  0  0
 30 31  2  0  0  0  0
 31 32  1  0  0  0  0
 32 33  1  0  0  0  0
 33 34  1  1  0  0  0
 34 35  1  0  0  0  0
 34 36  1  0  0  0  0
M  END
>  <Name>
Mibefradil

>  <CAS #>
116644-53-2

>  <human Clearance (mL/min/kg)>
4.0

>  <Primary mechanism (metabolic, biliary or renal)>
metabolic

>  <seqId>
596.0

>  <Code (mechanism and clearance degree index)>
M1

>  < Five M1 and R1 test groups>
M1_4

>  <formamide>
0

>  <prodrug phosphates>
0

>  <VolSurf_V>
1119.75

>  <VolSurf_S>
723.735

>  <VolSurf_R>
1.54718

>  <VolSurf_G>
1.63501

>  <VolSurf_IW1>
0.0301289

>  <VolSurf_IW2>
0.134546

>  <VolSurf_IW3>
0.356913

>  <VolSurf_IW4>
0.628788

>  <VolSurf_ID1>
0.0352728

>  <VolSurf_ID2>
0.0876854

>  <VolSurf_ID3>
0.168936

>  <VolSurf_ID4>
0.196137

>  <VolSurf_HL1>
1.24156

>  <VolSurf_HL2>
0.828125

>  <VolSurf_A>
5.77606

>  <VolSurf_CP>
1.01056

>  <VolSurf_POL>
56.695

>  <VolSurf_MW>
496.637

>  <VolSurf_FLEX>
3.55637

>  <VolSurf_FLEX_RB>
0.222273

>  <VolSurf_NCC>
1.0

>  <VolSurf_LOGP n-Oct>
5.851

>  <VolSurf_LOGP c-Hex>
4.433

>  <VolSurf_PSA>
80.3

>  <VolSurf_HSA>
643.435

>  <VolSurf_PSAR>
0.110952

>  <VolSurf_PHSAR>
0.124799

>  <VolSurf_LgD5>
1.4504

>  <VolSurf_LgD6>
2.40052

>  <VolSurf_LgD7>
3.39471

>  <VolSurf_LgD7.5>
3.89111

>  <VolSurf_LgD8>
4.38083

>  <VolSurf_LgD9>
5.26524

>  <VolSurf_LgD10>
5.74175

>  <VolSurf_AUS7.4>
0.195803

>  <VolSurf_%FU4>
3.41676E-5

>  <VolSurf_%FU5>
0.00182006

>  <VolSurf_%FU6>
0.0320729

>  <VolSurf_%FU7>
0.346121

>  <VolSurf_%FU8>
3.38365

>  <VolSurf_%FU9>
25.9532

>  <VolSurf_%FU10>
77.7586

>  <ID>
292

>  <MOKAID>
293

>  <Clearance Route>
possible billary

>  <PC1>
2.87494

>  <PC2>
-3.27347

$$$$
Midazolam
  -OEChem-08301611272D

 23 26  0     0  0  0  0  0  0999 V2000
   -3.2401    1.3540    0.0000 C   0  0  0  0  0  0  0  0  0  0  0  0
   -3.5561    0.4052    0.0000 C   0  0  0  0  0  0  0  0  0  0  0  0
   -4.5134    0.1012    0.0000 N   0  0  0  0  0  0  0  0  0  0  0  0
   -4.5186   -0.9017    0.0000 C   0  0  0  0  0  0  0  0  0  0  0  0
   -3.5662   -1.2157    0.0000 C   0  0  0  0  0  0  0  0  0  0  0  0
   -3.3079   -2.1883    0.0000 C   0  0  0  0  0  0  0  0  0  0  0  0
   -2.3708   -2.6190    0.0000 N   0  0  0  0  0  0  0  0  0  0  0  0
   -1.5045   -2.1175    0.0000 C   0  0  0  0  0  0  0  0  0  0  0  0
   -0.6890   -2.6963    0.0000 C   0  0  0  0  0  0  0  0  0  0  0  0
    0.2206   -2.2808    0.0000 C   0  0  0  0  0  0  0  0  0  0  0  0
    1.0386   -2.8560    0.0000 C   0  0  0  0  0  0  0  0  0  0  0  0
    0.9461   -3.8569    0.0000 C   0  0  0  0  0  0  0  0  0  0  0  0
    0.0355   -4.2826    0.0000 C   0  0  0  0  0  0  0  0  0  0  0  0
   -0.7816   -3.6972    0.0000 C   0  0  0  0  0  0  0  0  0  0  0  0
   -1.6912   -4.1127    0.0000 F   0  0  0  0  0  0  0  0  0  0  0  0
   -1.3171   -1.1348    0.0000 C   0  0  0  0  0  0  0  0  0  0  0  0
   -0.3293   -0.9473    0.0000 C   0  0  0  0  0  0  0  0  0  0  0  0
    0.0000    0.0000    0.0000 C   0  0  0  0  0  0  0  0  0  0  0  0
    0.9824    0.1868    0.0000 Cl  0  0  0  0  0  0  0  0  0  0  0  0
   -0.6535    0.7598    0.0000 C   0  0  0  0  0  0  0  0  0  0  0  0
   -1.6362    0.5723    0.0000 C   0  0  0  0  0  0  0  0  0  0  0  0
   -1.9705   -0.3749    0.0000 C   0  0  0  0  0  0  0  0  0  0  0  0
   -2.9735   -0.4103    0.0000 N   0  0  0  0  0  0  0  0  0  0  0  0
  1  2  1  0  0  0  0
  2 23  1  0  0  0  0
  2  3  2  0  0  0  0
  3  4  1  0  0  0  0
  4  5  2  0  0  0  0
  5 23  1  0  0  0  0
  5  6  1  0  0  0  0
  6  7  1  0  0  0  0
  7  8  2  0  0  0  0
  8  9  1  0  0  0  0
  9 14  2  0  0  0  0
  9 10  1  0  0  0  0
 10 11  2  0  0  0  0
 11 12  1  0  0  0  0
 12 13  2  0  0  0  0
 13 14  1  0  0  0  0
 14 15  1  0  0  0  0
  8 16  1  0  0  0  0
 16 22  2  0  0  0  0
 16 17  1  0  0  0  0
 17 18  2  0  0  0  0
 18 19  1  0  0  0  0
 18 20  1  0  0  0  0
 20 21  2  0  0  0  0
 21 22  1  0  0  0  0
 22 23  1  0  0  0  0
M  END
>  <Name>
Midazolam

>  <CAS #>
59467-70-8

>  <human Clearance (mL/min/kg)>
5.3

>  <Primary mechanism (metabolic, biliary or renal)>
metabolic

>  <seqId>
599.0

>  <Code (mechanism and clearance degree index)>
M1

>  < Five M1 and R1 test groups>
M1_5

>  <formamide>
0

>  <prodrug phosphates>
0

>  <VolSurf_V>
677.0

>  <VolSurf_S>
453.963

>  <VolSurf_R>
1.49131

>  <VolSurf_G>
1.34343

>  <VolSurf_IW1>
0.0822313

>  <VolSurf_IW2>
0.342574

>  <VolSurf_IW3>
0.794154

>  <VolSurf_IW4>
1.33954

>  <VolSurf_ID1>
0.0473446

>  <VolSurf_ID2>
0.0660811

>  <VolSurf_ID3>
0.0626734

>  <VolSurf_ID4>
0.0722665

>  <VolSurf_HL1>
0.62358

>  <VolSurf_HL2>
0.334812

>  <VolSurf_A>
5.2169

>  <VolSurf_CP>
4.03835

>  <VolSurf_POL>
34.546

>  <VolSurf_MW>
325.767

>  <VolSurf_FLEX>
0.290629

>  <VolSurf_FLEX_RB>
0.145315

>  <VolSurf_NCC>
0.0

>  <VolSurf_LOGP n-Oct>
3.114

>  <VolSurf_LOGP c-Hex>
3.893

>  <VolSurf_PSA>
33.67

>  <VolSurf_HSA>
420.293

>  <VolSurf_PSAR>
0.0741691

>  <VolSurf_PHSAR>
0.0801108

>  <VolSurf_LgD5>
1.92155

>  <VolSurf_LgD6>
2.72277

>  <VolSurf_LgD7>
3.05474

>  <VolSurf_LgD7.5>
3.09437

>  <VolSurf_LgD8>
3.1077

>  <VolSurf_LgD9>
3.11337

>  <VolSurf_LgD10>
3.11394

>  <VolSurf_AUS7.4>
1.97863

>  <VolSurf_%FU4>
0.669124

>  <VolSurf_%FU5>
6.39062

>  <VolSurf_%FU6>
40.6038

>  <VolSurf_%FU7>
87.24

>  <VolSurf_%FU8>
98.5585

>  <VolSurf_%FU9>
99.854

>  <VolSurf_%FU10>
99.9854

>  <ID>
293

>  <MOKAID>
294

>  <Clearance Route>
metabolic

>  <PC1>
4.58476

>  <PC2>
0.640628

$$$$
Midodrine
  -OEChem-08301611272D

 18 18  0     1  0  0  0  0  0999 V2000
   -0.8675    1.5027    0.0000 C   0  0  0  0  0  0  0  0  0  0  0  0
   -0.8675    0.4975    0.0000 C   0  0  0  0  0  0  0  0  0  0  0  0
    0.0000    0.0000    0.0000 C   0  0  0  0  0  0  0  0  0  0  0  0
    0.8675    0.4975    0.0000 C   0  0  0  0  0  0  0  0  0  0  0  0
    0.8675    1.5027    0.0000 C   0  0  0  0  0  0  0  0  0  0  0  0
   -0.0000    2.0104    0.0000 C   0  0  0  0  0  0  0  0  0  0  0  0
    1.7350    2.0001    0.0000 O   0  0  0  0  0  0  0  0  0  0  0  0
    1.7379    3.0001    0.0000 C   0  0  0  0  0  0  0  0  0  0  0  0
   -1.7328   -0.0038    0.0000 O   0  0  0  0  0  0  0  0  0  0  0  0
   -1.7313   -1.0038    0.0000 C   0  0  0  0  0  0  0  0  0  0  0  0
   -1.7350    2.0001    0.0000 C   0  0  1  0  0  0  0  0  0  0  0  0
   -2.5995    1.4976    0.0000 C   0  0  0  0  0  0  0  0  0  0  0  0
   -3.4670    1.9950    0.0000 N   0  0  0  0  0  0  0  0  0  0  0  0
   -4.3316    1.4925    0.0000 C   0  0  0  0  0  0  0  0  0  0  0  0
   -5.1991    1.9899    0.0000 C   0  0  0  0  0  0  0  0  0  0  0  0
   -6.0636    1.4874    0.0000 N   0  0  0  0  0  0  0  0  0  0  0  0
   -4.3286    0.4925    0.0000 O   0  0  0  0  0  0  0  0  0  0  0  0
   -1.7379    3.0001    0.0000 O   0  0  0  0  0  0  0  0  0  0  0  0
  1  6  2  0  0  0  0
  1  2  1  0  0  0  0
  2  3  2  0  0  0  0
  3  4  1  0  0  0  0
  4  5  2  0  0  0  0
  5  6  1  0  0  0  0
  5  7  1  0  0  0  0
  7  8  1  0  0  0  0
  2  9  1  0  0  0  0
  9 10  1  0  0  0  0
  1 11  1  0  0  0  0
 11 12  1  0  0  0  0
 12 13  1  0  0  0  0
 13 14  1  0  0  0  0
 14 15  1  0  0  0  0
 15 16  1  0  0  0  0
 14 17  2  0  0  0  0
 11 18  1  1  0  0  0
M  END
>  <Name>
Midodrine

>  <CAS #>
42794-76-3

>  <human Clearance (mL/min/kg)>
27.9

>  <Primary mechanism (metabolic, biliary or renal)>
metabolic

>  <seqId>
600.0

>  <Code (mechanism and clearance degree index)>
M1

>  < Five M1 and R1 test groups>
M1_1

>  <formamide>
0

>  <prodrug phosphates>
0

>  <VolSurf_V>
589.25

>  <VolSurf_S>
427.081

>  <VolSurf_R>
1.37972

>  <VolSurf_G>
1.40844

>  <VolSurf_IW1>
0.151941

>  <VolSurf_IW2>
0.341941

>  <VolSurf_IW3>
0.774719

>  <VolSurf_IW4>
1.15913

>  <VolSurf_ID1>
0.092724

>  <VolSurf_ID2>
0.170065

>  <VolSurf_ID3>
0.282563

>  <VolSurf_ID4>
0.363674

>  <VolSurf_HL1>
5.73077

>  <VolSurf_HL2>
5.00917

>  <VolSurf_A>
5.97583

>  <VolSurf_CP>
0.227472

>  <VolSurf_POL>
27.901

>  <VolSurf_MW>
255.29

>  <VolSurf_FLEX>
1.74034

>  <VolSurf_FLEX_RB>
0.174034

>  <VolSurf_NCC>
1.0

>  <VolSurf_LOGP n-Oct>
-1.299

>  <VolSurf_LOGP c-Hex>
-2.14

>  <VolSurf_PSA>
106.8

>  <VolSurf_HSA>
320.281

>  <VolSurf_PSAR>
0.25007

>  <VolSurf_PHSAR>
0.333457

>  <VolSurf_LgD5>
-2.70609

>  <VolSurf_LgD6>
-2.66442

>  <VolSurf_LgD7>
-2.39137

>  <VolSurf_LgD7.5>
-2.09385

>  <VolSurf_LgD8>
-1.76653

>  <VolSurf_LgD9>
-1.38109

>  <VolSurf_LgD10>
-1.30816

>  <VolSurf_AUS7.4>
1.04224

>  <VolSurf_%FU4>
0.00458176

>  <VolSurf_%FU5>
0.0457987

>  <VolSurf_%FU6>
0.456107

>  <VolSurf_%FU7>
4.38122

>  <VolSurf_%FU8>
31.4221

>  <VolSurf_%FU9>
82.0828

>  <VolSurf_%FU10>
97.8309

>  <ID>
294

>  <MOKAID>
295

>  <Clearance Route>
uncertain

>  <PC1>
-1.08035

>  <PC2>
3.18148

$$$$
Miglitol
  -OEChem-08301611272D

 14 14  0     1  0  0  0  0  0999 V2000
   -0.8660    4.5104    0.0000 O   0  0  0  0  0  0  0  0  0  0  0  0
   -0.8660    3.5104    0.0000 C   0  0  0  0  0  0  0  0  0  0  0  0
   -0.0000    3.0104    0.0000 C   0  0  0  0  0  0  0  0  0  0  0  0
   -0.0000    2.0104    0.0000 N   0  0  3  0  0  0  0  0  0  0  0  0
   -0.8675    1.5027    0.0000 C   0  0  0  0  0  0  0  0  0  0  0  0
   -0.8675    0.4975    0.0000 C   0  0  2  0  0  0  0  0  0  0  0  0
   -1.7328   -0.0038    0.0000 O   0  0  0  0  0  0  0  0  0  0  0  0
    0.0000    0.0000    0.0000 C   0  0  1  0  0  0  0  0  0  0  0  0
    0.0000   -1.0000    0.0000 O   0  0  0  0  0  0  0  0  0  0  0  0
    0.8675    0.4975    0.0000 C   0  0  2  0  0  0  0  0  0  0  0  0
    1.7328   -0.0038    0.0000 O   0  0  0  0  0  0  0  0  0  0  0  0
    0.8675    1.5027    0.0000 C   0  0  1  0  0  0  0  0  0  0  0  0
    1.7350    2.0001    0.0000 C   0  0  0  0  0  0  0  0  0  0  0  0
    1.7379    3.0001    0.0000 O   0  0  0  0  0  0  0  0  0  0  0  0
  1  2  1  0  0  0  0
  2  3  1  0  0  0  0
  3  4  1  0  0  0  0
  4 12  1  0  0  0  0
  4  5  1  0  0  0  0
  5  6  1  0  0  0  0
  6  7  1  1  0  0  0
  6  8  1  0  0  0  0
  8  9  1  6  0  0  0
  8 10  1  0  0  0  0
 10 11  1  1  0  0  0
 10 12  1  0  0  0  0
 12 13  1  6  0  0  0
 13 14  1  0  0  0  0
M  END
>  <Name>
Miglitol

>  <CAS #>
72432-03-2

>  <human Clearance (mL/min/kg)>
1.7

>  <Primary mechanism (metabolic, biliary or renal)>
renal

>  <seqId>
603.0

>  <Code (mechanism and clearance degree index)>
R1

>  < Five M1 and R1 test groups>
R1_1

>  <formamide>
0

>  <prodrug phosphates>
0

>  <VolSurf_V>
420.5

>  <VolSurf_S>
312.333

>  <VolSurf_R>
1.34632

>  <VolSurf_G>
1.23434

>  <VolSurf_IW1>
0.0466805

>  <VolSurf_IW2>
0.0805828

>  <VolSurf_IW3>
0.171137

>  <VolSurf_IW4>
0.523696

>  <VolSurf_ID1>
0.125222

>  <VolSurf_ID2>
0.232827

>  <VolSurf_ID3>
0.0

>  <VolSurf_ID4>
0.0

>  <VolSurf_HL1>
380.25

>  <VolSurf_HL2>
204.75

>  <VolSurf_A>
4.66926

>  <VolSurf_CP>
7.10431E-4

>  <VolSurf_POL>
19.216

>  <VolSurf_MW>
207.224

>  <VolSurf_FLEX>
0.548292

>  <VolSurf_FLEX_RB>
0.0685365

>  <VolSurf_NCC>
0.0

>  <VolSurf_LOGP n-Oct>
-3.063

>  <VolSurf_LOGP c-Hex>
-9.0

>  <VolSurf_PSA>
104.39

>  <VolSurf_HSA>
207.943

>  <VolSurf_PSAR>
0.334226

>  <VolSurf_PHSAR>
0.502012

>  <VolSurf_LgD5>
-5.11564

>  <VolSurf_LgD6>
-4.20788

>  <VolSurf_LgD7>
-3.42789

>  <VolSurf_LgD7.5>
-3.21435

>  <VolSurf_LgD8>
-3.11681

>  <VolSurf_LgD9>
-3.06871

>  <VolSurf_LgD10>
-3.06376

>  <VolSurf_AUS7.4>
1.82109

>  <VolSurf_%FU4>
0.0756454

>  <VolSurf_%FU5>
0.751339

>  <VolSurf_%FU6>
7.03751

>  <VolSurf_%FU7>
43.0857

>  <VolSurf_%FU8>
88.3314

>  <VolSurf_%FU9>
98.6921

>  <VolSurf_%FU10>
99.8257

>  <ID>
295

>  <MOKAID>
296

>  <Clearance Route>
renal

>  <PC1>
-3.69426

>  <PC2>
2.79442

$$$$
Milrinone
  -OEChem-08301611272D

 16 17  0     0  0  0  0  0  0999 V2000
   -1.7350    2.0001    0.0000 C   0  0  0  0  0  0  0  0  0  0  0  0
   -0.8675    1.5027    0.0000 C   0  0  0  0  0  0  0  0  0  0  0  0
   -0.8675    0.4975    0.0000 C   0  0  0  0  0  0  0  0  0  0  0  0
    0.0000    0.0000    0.0000 C   0  0  0  0  0  0  0  0  0  0  0  0
    0.8675    0.4975    0.0000 C   0  0  0  0  0  0  0  0  0  0  0  0
    1.7328   -0.0038    0.0000 C   0  0  0  0  0  0  0  0  0  0  0  0
    2.5981   -0.5050    0.0000 N   0  0  0  0  0  0  0  0  0  0  0  0
    0.8675    1.5027    0.0000 C   0  0  0  0  0  0  0  0  0  0  0  0
    1.7350    2.0001    0.0000 O   0  0  0  0  0  0  0  0  0  0  0  0
   -0.0000    2.0104    0.0000 N   0  0  0  0  0  0  0  0  0  0  0  0
   -1.7328   -0.0038    0.0000 C   0  0  0  0  0  0  0  0  0  0  0  0
   -1.7284   -1.0038    0.0000 C   0  0  0  0  0  0  0  0  0  0  0  0
   -2.5982   -1.5076    0.0000 C   0  0  0  0  0  0  0  0  0  0  0  0
   -3.4724   -1.0115    0.0000 N   0  0  0  0  0  0  0  0  0  0  0  0
   -3.4679   -0.0063    0.0000 C   0  0  0  0  0  0  0  0  0  0  0  0
   -2.5981    0.4975    0.0000 C   0  0  0  0  0  0  0  0  0  0  0  0
  1  2  1  0  0  0  0
  2 10  1  0  0  0  0
  2  3  2  0  0  0  0
  3  4  1  0  0  0  0
  4  5  2  0  0  0  0
  5  6  1  0  0  0  0
  6  7  3  0  0  0  0
  5  8  1  0  0  0  0
  8  9  2  0  0  0  0
  8 10  1  0  0  0  0
  3 11  1  0  0  0  0
 11 16  2  0  0  0  0
 11 12  1  0  0  0  0
 12 13  2  0  0  0  0
 13 14  1  0  0  0  0
 14 15  2  0  0  0  0
 15 16  1  0  0  0  0
M  END
>  <Name>
Milrinone

>  <CAS #>
78415-72-2

>  <human Clearance (mL/min/kg)>
6.2

>  <Primary mechanism (metabolic, biliary or renal)>
renal

>  <seqId>
605.0

>  <Code (mechanism and clearance degree index)>
R1

>  < Five M1 and R1 test groups>
R1_1

>  <formamide>
0

>  <prodrug phosphates>
0

>  <VolSurf_V>
487.0

>  <VolSurf_S>
346.06

>  <VolSurf_R>
1.40727

>  <VolSurf_G>
1.243

>  <VolSurf_IW1>
0.100867

>  <VolSurf_IW2>
0.257033

>  <VolSurf_IW3>
0.620427

>  <VolSurf_IW4>
1.08276

>  <VolSurf_ID1>
0.0535648

>  <VolSurf_ID2>
0.0744217

>  <VolSurf_ID3>
0.0979707

>  <VolSurf_ID4>
0.189121

>  <VolSurf_HL1>
1.51859

>  <VolSurf_HL2>
1.01617

>  <VolSurf_A>
2.91612

>  <VolSurf_CP>
2.35205

>  <VolSurf_POL>
22.424

>  <VolSurf_MW>
210.211

>  <VolSurf_FLEX>
0.21194

>  <VolSurf_FLEX_RB>
0.0706466

>  <VolSurf_NCC>
1.0

>  <VolSurf_LOGP n-Oct>
-0.055

>  <VolSurf_LOGP c-Hex>
-2.053

>  <VolSurf_PSA>
53.49

>  <VolSurf_HSA>
292.57

>  <VolSurf_PSAR>
0.154569

>  <VolSurf_PHSAR>
0.182828

>  <VolSurf_LgD5>
-1.35585

>  <VolSurf_LgD6>
-0.526119

>  <VolSurf_LgD7>
-0.282837

>  <VolSurf_LgD7.5>
-0.476168

>  <VolSurf_LgD8>
-0.833195

>  <VolSurf_LgD9>
-1.75502

>  <VolSurf_LgD10>
-2.69041

>  <VolSurf_AUS7.4>
1.63972

>  <VolSurf_%FU4>
0.52063

>  <VolSurf_%FU5>
4.97205

>  <VolSurf_%FU6>
33.7763

>  <VolSurf_%FU7>
59.1655

>  <VolSurf_%FU8>
16.6386

>  <VolSurf_%FU9>
1.96418

>  <VolSurf_%FU10>
0.19996

>  <ID>
296

>  <MOKAID>
297

>  <Clearance Route>
uncertain

>  <PC1>
0.168462

>  <PC2>
2.504

$$$$
Mirtazapine
  -OEChem-08301611272D

 20 23  0     1  0  0  0  0  0999 V2000
    1.5970    4.7828    0.0000 C   0  0  0  0  0  0  0  0  0  0  0  0
    2.0986    3.9177    0.0000 N   0  0  3  0  0  0  0  0  0  0  0  0
    3.1042    3.9206    0.0000 C   0  0  0  0  0  0  0  0  0  0  0  0
    3.6067    3.0505    0.0000 C   0  0  0  0  0  0  0  0  0  0  0  0
    3.1091    2.1830    0.0000 N   0  0  3  0  0  0  0  0  0  0  0  0
    2.1035    2.1801    0.0000 C   0  0  3  0  0  0  0  0  0  0  0  0
    1.5956    3.0447    0.0000 C   0  0  0  0  0  0  0  0  0  0  0  0
    1.4720    1.3866    0.0000 C   0  0  0  0  0  0  0  0  0  0  0  0
    0.5074    1.6773    0.0000 C   0  0  0  0  0  0  0  0  0  0  0  0
   -0.2319    0.9860    0.0000 C   0  0  0  0  0  0  0  0  0  0  0  0
    0.0000    0.0000    0.0000 C   0  0  0  0  0  0  0  0  0  0  0  0
    0.9712   -0.2948    0.0000 C   0  0  0  0  0  0  0  0  0  0  0  0
    1.7038    0.4006    0.0000 C   0  0  0  0  0  0  0  0  0  0  0  0
    2.6192   -0.0318    0.0000 C   0  0  0  0  0  0  0  0  0  0  0  0
    3.5284    0.4074    0.0000 C   0  0  0  0  0  0  0  0  0  0  0  0
    4.2724   -0.2641    0.0000 C   0  0  0  0  0  0  0  0  0  0  0  0
    5.2314    0.0433    0.0000 C   0  0  0  0  0  0  0  0  0  0  0  0
    5.4423    1.0288    0.0000 C   0  0  0  0  0  0  0  0  0  0  0  0
    4.6939    1.7071    0.0000 N   0  0  0  0  0  0  0  0  0  0  0  0
    3.7392    1.3931    0.0000 C   0  0  0  0  0  0  0  0  0  0  0  0
  1  2  1  0  0  0  0
  2  7  1  0  0  0  0
  2  3  1  0  0  0  0
  3  4  1  0  0  0  0
  4  5  1  0  0  0  0
  5 20  1  0  0  0  0
  5  6  1  0  0  0  0
  6  7  1  0  0  0  0
  6  8  1  0  0  0  0
  8 13  2  0  0  0  0
  8  9  1  0  0  0  0
  9 10  2  0  0  0  0
 10 11  1  0  0  0  0
 11 12  2  0  0  0  0
 12 13  1  0  0  0  0
 13 14  1  0  0  0  0
 14 15  1  0  0  0  0
 15 20  2  0  0  0  0
 15 16  1  0  0  0  0
 16 17  2  0  0  0  0
 17 18  1  0  0  0  0
 18 19  2  0  0  0  0
 19 20  1  0  0  0  0
M  END
>  <Name>
Mirtazapine

>  <CAS #>
85650-52-8

>  <human Clearance (mL/min/kg)>
8.0

>  <Primary mechanism (metabolic, biliary or renal)>
metabolic

>  <seqId>
609.0

>  <Code (mechanism and clearance degree index)>
M1

>  < Five M1 and R1 test groups>
M1_3

>  <formamide>
0

>  <prodrug phosphates>
0

>  <VolSurf_V>
638.0

>  <VolSurf_S>
420.706

>  <VolSurf_R>
1.5165

>  <VolSurf_G>
1.2718

>  <VolSurf_IW1>
0.0423932

>  <VolSurf_IW2>
0.301973

>  <VolSurf_IW3>
0.737236

>  <VolSurf_IW4>
1.09322

>  <VolSurf_ID1>
0.0360237

>  <VolSurf_ID2>
0.0708462

>  <VolSurf_ID3>
0.10747

>  <VolSurf_ID4>
0.147542

>  <VolSurf_HL1>
0.427928

>  <VolSurf_HL2>
0.298755

>  <VolSurf_A>
4.65566

>  <VolSurf_CP>
4.22254

>  <VolSurf_POL>
33.598

>  <VolSurf_MW>
266.361

>  <VolSurf_FLEX>
1.3571E-6

>  <VolSurf_FLEX_RB>
1.3571E-6

>  <VolSurf_NCC>
1.0

>  <VolSurf_LOGP n-Oct>
2.35

>  <VolSurf_LOGP c-Hex>
1.261

>  <VolSurf_PSA>
27.05

>  <VolSurf_HSA>
393.656

>  <VolSurf_PSAR>
0.0642968

>  <VolSurf_PHSAR>
0.0687149

>  <VolSurf_LgD5>
-0.67128

>  <VolSurf_LgD6>
-0.145724

>  <VolSurf_LgD7>
0.747383

>  <VolSurf_LgD7.5>
1.21679

>  <VolSurf_LgD8>
1.65052

>  <VolSurf_LgD9>
2.20337

>  <VolSurf_LgD10>
2.33289

>  <VolSurf_AUS7.4>
0.81824

>  <VolSurf_%FU4>
0.00213216

>  <VolSurf_%FU5>
0.0244602

>  <VolSurf_%FU6>
0.247708

>  <VolSurf_%FU7>
2.42661

>  <VolSurf_%FU8>
19.9188

>  <VolSurf_%FU9>
71.3251

>  <VolSurf_%FU10>
96.1351

>  <ID>
297

>  <MOKAID>
298

>  <Clearance Route>
metabolic

>  <PC1>
2.52334

>  <PC2>
1.48634

$$$$
Mivacurium (cis/cis)
  -OEChem-08301611272D

 74 79  0     1  0  0  0  0  0999 V2000
   -1.7320   -0.0025    0.0000 C   0  0  0  0  0  0  0  0  0  0  0  0
   -0.8653   -0.5013    0.0000 O   0  0  0  0  0  0  0  0  0  0  0  0
    0.0000    0.0000    0.0000 C   0  0  0  0  0  0  0  0  0  0  0  0
    0.8707   -0.4993    0.0000 C   0  0  0  0  0  0  0  0  0  0  0  0
    1.7371    0.0000    0.0000 C   0  0  0  0  0  0  0  0  0  0  0  0
    2.6039   -0.5053    0.0000 C   0  0  0  0  0  0  0  0  0  0  0  0
    3.4805   -0.0073    0.0000 C   0  0  0  0  0  0  0  0  0  0  0  0
    3.4848    1.0014    0.0000 N   0  3  3  0  0  0  0  0  0  0  0  0
    3.8322    1.9391    0.0000 C   0  0  0  0  0  0  0  0  0  0  0  0
    4.4687    0.8229    0.0000 C   0  0  0  0  0  0  0  0  0  0  0  0
    5.1153    1.5857    0.0000 C   0  0  0  0  0  0  0  0  0  0  0  0
    6.0993    1.4071    0.0000 C   0  0  0  0  0  0  0  0  0  0  0  0
    6.7458    2.1700    0.0000 O   0  0  0  0  0  0  0  0  0  0  0  0
    7.7298    1.9914    0.0000 C   0  0  0  0  0  0  0  0  0  0  0  0
    8.0671    1.0500    0.0000 O   0  0  0  0  0  0  0  0  0  0  0  0
    8.3764    2.7543    0.0000 C   0  0  0  0  0  0  0  0  0  0  0  0
    9.3603    2.5757    0.0000 C   0  0  0  0  0  0  0  0  0  0  0  0
   10.0069    3.3386    0.0000 C   0  0  0  0  0  0  0  0  0  0  0  0
   10.9908    3.1600    0.0000 C   0  0  0  0  0  0  0  0  0  0  0  0
   11.6374    3.9228    0.0000 C   0  0  0  0  0  0  0  0  0  0  0  0
   12.6213    3.7443    0.0000 C   0  0  0  0  0  0  0  0  0  0  0  0
   13.2679    4.5071    0.0000 C   0  0  0  0  0  0  0  0  0  0  0  0
   12.9306    5.4485    0.0000 O   0  0  0  0  0  0  0  0  0  0  0  0
   14.2519    4.3286    0.0000 O   0  0  0  0  0  0  0  0  0  0  0  0
   14.8985    5.0914    0.0000 C   0  0  0  0  0  0  0  0  0  0  0  0
   15.8824    4.9129    0.0000 C   0  0  0  0  0  0  0  0  0  0  0  0
   16.5290    5.6757    0.0000 C   0  0  0  0  0  0  0  0  0  0  0  0
   17.5129    5.4972    0.0000 N   0  3  3  0  0  0  0  0  0  0  0  0
   17.1656    4.5594    0.0000 C   0  0  0  0  0  0  0  0  0  0  0  0
   18.3832    4.9872    0.0000 C   0  0  0  0  0  0  0  0  0  0  0  0
   19.2582    5.4881    0.0000 C   0  0  0  0  0  0  0  0  0  0  0  0
   19.2647    6.4914    0.0000 C   0  0  0  0  0  0  0  0  0  0  0  0
   20.1356    6.9828    0.0000 C   0  0  0  0  0  0  0  0  0  0  0  0
   20.1493    7.9864    0.0000 C   0  0  0  0  0  0  0  0  0  0  0  0
   21.0213    8.4759    0.0000 O   0  0  0  0  0  0  0  0  0  0  0  0
   21.8812    7.9654    0.0000 C   0  0  0  0  0  0  0  0  0  0  0  0
   19.2810    8.5001    0.0000 C   0  0  0  0  0  0  0  0  0  0  0  0
   19.2946    9.5001    0.0000 O   0  0  0  0  0  0  0  0  0  0  0  0
   20.1673    9.9882    0.0000 C   0  0  0  0  0  0  0  0  0  0  0  0
   18.3990    8.0103    0.0000 C   0  0  0  0  0  0  0  0  0  0  0  0
   18.3942    7.0014    0.0000 C   0  0  0  0  0  0  0  0  0  0  0  0
   17.5172    6.5082    0.0000 C   0  0  3  0  0  0  0  0  0  0  0  0
   16.6551    7.0149    0.0000 C   0  0  0  0  0  0  0  0  0  0  0  0
   16.6629    8.0148    0.0000 C   0  0  0  0  0  0  0  0  0  0  0  0
   17.5387    8.5081    0.0000 C   0  0  0  0  0  0  0  0  0  0  0  0
   17.5465    9.5081    0.0000 C   0  0  0  0  0  0  0  0  0  0  0  0
   18.4178    9.9988    0.0000 O   0  0  0  0  0  0  0  0  0  0  0  0
   18.4286   10.9987    0.0000 C   0  0  0  0  0  0  0  0  0  0  0  0
   16.6873   10.0198    0.0000 C   0  0  0  0  0  0  0  0  0  0  0  0
   16.6995   11.0198    0.0000 O   0  0  0  0  0  0  0  0  0  0  0  0
   15.8396   11.5302    0.0000 C   0  0  0  0  0  0  0  0  0  0  0  0
   15.8115    9.5266    0.0000 C   0  0  0  0  0  0  0  0  0  0  0  0
   14.9524   10.0384    0.0000 O   0  0  0  0  0  0  0  0  0  0  0  0
   14.0796    9.5502    0.0000 C   0  0  0  0  0  0  0  0  0  0  0  0
   15.7948    8.5216    0.0000 C   0  0  0  0  0  0  0  0  0  0  0  0
    2.6125    1.5125    0.0000 C   0  0  3  0  0  0  0  0  0  0  0  0
    2.6154    2.5125    0.0000 C   0  0  0  0  0  0  0  0  0  0  0  0
    1.7508    3.0150    0.0000 C   0  0  0  0  0  0  0  0  0  0  0  0
    0.8803    2.5124    0.0000 C   0  0  0  0  0  0  0  0  0  0  0  0
    0.0157    3.0149    0.0000 C   0  0  0  0  0  0  0  0  0  0  0  0
   -0.8503    2.5149    0.0000 O   0  0  0  0  0  0  0  0  0  0  0  0
   -1.7163    3.0148    0.0000 C   0  0  0  0  0  0  0  0  0  0  0  0
    0.0128    4.0149    0.0000 C   0  0  0  0  0  0  0  0  0  0  0  0
   -0.8540    4.5136    0.0000 O   0  0  0  0  0  0  0  0  0  0  0  0
   -0.8555    5.5136    0.0000 C   0  0  0  0  0  0  0  0  0  0  0  0
    0.8833    4.5175    0.0000 C   0  0  0  0  0  0  0  0  0  0  0  0
    0.8803    5.5175    0.0000 O   0  0  0  0  0  0  0  0  0  0  0  0
    1.7448    6.0201    0.0000 C   0  0  0  0  0  0  0  0  0  0  0  0
    1.7567    4.0201    0.0000 C   0  0  0  0  0  0  0  0  0  0  0  0
    1.7414    1.0089    0.0000 C   0  0  0  0  0  0  0  0  0  0  0  0
    0.8707    1.5185    0.0000 C   0  0  0  0  0  0  0  0  0  0  0  0
    0.0000    1.0089    0.0000 C   0  0  0  0  0  0  0  0  0  0  0  0
   -0.8675    1.5063    0.0000 O   0  0  0  0  0  0  0  0  0  0  0  0
   -1.7320    1.0038    0.0000 C   0  0  0  0  0  0  0  0  0  0  0  0
  1  2  1  0  0  0  0
  2  3  1  0  0  0  0
  3 72  2  0  0  0  0
  3  4  1  0  0  0  0
  4  5  2  0  0  0  0
  5 70  1  0  0  0  0
  5  6  1  0  0  0  0
  6  7  1  0  0  0  0
  7  8  1  0  0  0  0
  8  9  1  0  0  0  0
  8 10  1  0  0  0  0
 10 11  1  0  0  0  0
 11 12  1  0  0  0  0
 12 13  1  0  0  0  0
 13 14  1  0  0  0  0
 14 15  2  0  0  0  0
 14 16  1  0  0  0  0
 16 17  1  0  0  0  0
 17 18  1  0  0  0  0
 18 19  2  0  0  0  0
 19 20  1  0  0  0  0
 20 21  1  0  0  0  0
 21 22  1  0  0  0  0
 22 23  2  0  0  0  0
 22 24  1  0  0  0  0
 24 25  1  0  0  0  0
 25 26  1  0  0  0  0
 26 27  1  0  0  0  0
 27 28  1  0  0  0  0
 28 42  1  0  0  0  0
 28 29  1  0  0  0  0
 28 30  1  0  0  0  0
 30 31  1  0  0  0  0
 31 32  1  0  0  0  0
 32 41  2  0  0  0  0
 32 33  1  0  0  0  0
 33 34  2  0  0  0  0
 34 35  1  0  0  0  0
 35 36  1  0  0  0  0
 34 37  1  0  0  0  0
 37 38  1  0  0  0  0
 38 39  1  0  0  0  0
 37 40  2  0  0  0  0
 40 41  1  0  0  0  0
 41 42  1  0  0  0  0
 42 43  1  0  0  0  0
 43 44  1  0  0  0  0
 44 55  2  0  0  0  0
 44 45  1  0  0  0  0
 45 46  2  0  0  0  0
 46 47  1  0  0  0  0
 47 48  1  0  0  0  0
 46 49  1  0  0  0  0
 49 50  1  0  0  0  0
 50 51  1  0  0  0  0
 49 52  2  0  0  0  0
 52 53  1  0  0  0  0
 53 54  1  0  0  0  0
 52 55  1  0  0  0  0
  8 56  1  0  0  0  0
 56 57  1  0  0  0  0
 57 58  1  0  0  0  0
 58 69  2  0  0  0  0
 58 59  1  0  0  0  0
 59 60  2  0  0  0  0
 60 61  1  0  0  0  0
 61 62  1  0  0  0  0
 60 63  1  0  0  0  0
 63 64  1  0  0  0  0
 64 65  1  0  0  0  0
 63 66  2  0  0  0  0
 66 67  1  0  0  0  0
 67 68  1  0  0  0  0
 66 69  1  0  0  0  0
 56 70  1  0  0  0  0
 70 71  2  0  0  0  0
 71 72  1  0  0  0  0
 72 73  1  0  0  0  0
 73 74  1  0  0  0  0
M  CHG  2   8   1  28   1
M  END
>  <Name>
Mivacurium (cis/cis)

>  <CAS #>
106791-40-6

>  <human Clearance (mL/min/kg)>
5.2

>  <Primary mechanism (metabolic, biliary or renal)>
metabolic

>  <seqId>
612.0

>  <Code (mechanism and clearance degree index)>
M1

>  < Five M1 and R1 test groups>
M1_4

>  <formamide>
0

>  <prodrug phosphates>
0

>  <VolSurf_V>
2271.25

>  <VolSurf_S>
1436.48

>  <VolSurf_R>
1.58112

>  <VolSurf_G>
2.25402

>  <VolSurf_IW1>
0.00543091

>  <VolSurf_IW2>
0.0228898

>  <VolSurf_IW3>
0.086107

>  <VolSurf_IW4>
0.348259

>  <VolSurf_ID1>
0.00926188

>  <VolSurf_ID2>
0.0137634

>  <VolSurf_ID3>
0.0207977

>  <VolSurf_ID4>
0.0151575

>  <VolSurf_HL1>
1.22504

>  <VolSurf_HL2>
0.775819

>  <VolSurf_A>
2.09198

>  <VolSurf_CP>
3.12683

>  <VolSurf_POL>
110.228

>  <VolSurf_MW>
1029.26

>  <VolSurf_FLEX>
8.0296

>  <VolSurf_FLEX_RB>
0.191181

>  <VolSurf_NCC>
2.0

>  <VolSurf_LOGP n-Oct>
2.32

>  <VolSurf_LOGP c-Hex>
9.0

>  <VolSurf_PSA>
180.84

>  <VolSurf_HSA>
1255.64

>  <VolSurf_PSAR>
0.125891

>  <VolSurf_PHSAR>
0.144022

>  <VolSurf_LgD5>
2.32

>  <VolSurf_LgD6>
2.32

>  <VolSurf_LgD7>
2.32

>  <VolSurf_LgD7.5>
2.32

>  <VolSurf_LgD8>
2.32

>  <VolSurf_LgD9>
2.32

>  <VolSurf_LgD10>
2.32

>  <VolSurf_AUS7.4>
0.0

>  <VolSurf_%FU4>
0.0

>  <VolSurf_%FU5>
0.0

>  <VolSurf_%FU6>
0.0

>  <VolSurf_%FU7>
0.0

>  <VolSurf_%FU8>
0.0

>  <VolSurf_%FU9>
0.0

>  <VolSurf_%FU10>
0.0

>  <ID>
298

>  <MOKAID>
299

>  <Clearance Route>
possible billary

>  <PC1>
0.017628900000000003

>  <PC2>
-11.1787

$$$$
Mizolastine
  -OEChem-08301611272D

 32 36  0     1  0  0  0  0  0999 V2000
    2.6938    0.3110    0.0000 N   0  0  0  0  0  0  0  0  0  0  0  0
    3.0029    1.2620    0.0000 C   0  0  0  0  0  0  0  0  0  0  0  0
    2.3337    2.0052    0.0000 C   0  0  0  0  0  0  0  0  0  0  0  0
    1.3511    1.7934    0.0000 C   0  0  0  0  0  0  0  0  0  0  0  0
    0.6820    2.5365    0.0000 C   0  0  0  0  0  0  0  0  0  0  0  0
    0.9855    3.4894    0.0000 C   0  0  0  0  0  0  0  0  0  0  0  0
    1.9681    3.7012    0.0000 C   0  0  0  0  0  0  0  0  0  0  0  0
    2.6472    2.9602    0.0000 C   0  0  0  0  0  0  0  0  0  0  0  0
    0.3131    4.2296    0.0000 F   0  0  0  0  0  0  0  0  0  0  0  0
    3.2858   -0.5036    0.0000 C   0  0  0  0  0  0  0  0  0  0  0  0
    4.2858   -0.5035    0.0000 N   0  0  0  0  0  0  0  0  0  0  0  0
    4.7936   -1.3710    0.0000 C   0  0  0  0  0  0  0  0  0  0  0  0
    5.7988   -1.3710    0.0000 C   0  0  0  0  0  0  0  0  0  0  0  0
    6.2962   -0.5034    0.0000 C   0  0  0  0  0  0  0  0  0  0  0  0
    5.7986    0.3640    0.0000 C   0  0  0  0  0  0  0  0  0  0  0  0
    4.7934    0.3640    0.0000 C   0  0  0  0  0  0  0  0  0  0  0  0
    7.2962   -0.5034    0.0000 N   0  0  3  0  0  0  0  0  0  0  0  0
    7.7963   -1.3694    0.0000 C   0  0  0  0  0  0  0  0  0  0  0  0
    7.7961    0.3627    0.0000 C   0  0  0  0  0  0  0  0  0  0  0  0
    8.8013    0.3598    0.0000 N   0  0  0  0  0  0  0  0  0  0  0  0
    9.2961    1.2347    0.0000 C   0  0  0  0  0  0  0  0  0  0  0  0
    8.7909    2.1037    0.0000 C   0  0  0  0  0  0  0  0  0  0  0  0
    7.7909    2.0978    0.0000 C   0  0  0  0  0  0  0  0  0  0  0  0
    7.2909    1.2317    0.0000 N   0  0  0  0  0  0  0  0  0  0  0  0
    7.2883    2.9623    0.0000 O   0  0  0  0  0  0  0  0  0  0  0  0
    2.6938   -1.3184    0.0000 N   0  0  0  0  0  0  0  0  0  0  0  0
    1.7360   -1.0071    0.0000 C   0  0  0  0  0  0  0  0  0  0  0  0
    1.7360   -0.0000    0.0000 C   0  0  0  0  0  0  0  0  0  0  0  0
    0.8680    0.5079    0.0000 C   0  0  0  0  0  0  0  0  0  0  0  0
    0.0000    0.0000    0.0000 C   0  0  0  0  0  0  0  0  0  0  0  0
   -0.0000   -1.0058    0.0000 C   0  0  0  0  0  0  0  0  0  0  0  0
    0.8680   -1.5037    0.0000 C   0  0  0  0  0  0  0  0  0  0  0  0
  1 28  1  0  0  0  0
  1  2  1  0  0  0  0
  2  3  1  0  0  0  0
  3  8  2  0  0  0  0
  3  4  1  0  0  0  0
  4  5  2  0  0  0  0
  5  6  1  0  0  0  0
  6  7  2  0  0  0  0
  7  8  1  0  0  0  0
  6  9  1  0  0  0  0
  1 10  1  0  0  0  0
 10 11  1  0  0  0  0
 11 16  1  0  0  0  0
 11 12  1  0  0  0  0
 12 13  1  0  0  0  0
 13 14  1  0  0  0  0
 14 15  1  0  0  0  0
 15 16  1  0  0  0  0
 14 17  1  0  0  0  0
 17 18  1  0  0  0  0
 17 19  1  0  0  0  0
 19 24  1  0  0  0  0
 19 20  2  0  0  0  0
 20 21  1  0  0  0  0
 21 22  2  0  0  0  0
 22 23  1  0  0  0  0
 23 24  1  0  0  0  0
 23 25  2  0  0  0  0
 10 26  2  0  0  0  0
 26 27  1  0  0  0  0
 27 32  2  0  0  0  0
 27 28  1  0  0  0  0
 28 29  2  0  0  0  0
 29 30  1  0  0  0  0
 30 31  2  0  0  0  0
 31 32  1  0  0  0  0
M  END
>  <Name>
Mizolastine

>  <CAS #>
108612-45-9

>  <human Clearance (mL/min/kg)>
1.03

>  <Primary mechanism (metabolic, biliary or renal)>
metabolic

>  <seqId>
613.0

>  <Code (mechanism and clearance degree index)>
M1

>  < Five M1 and R1 test groups>
M1_2

>  <formamide>
0

>  <prodrug phosphates>
0

>  <VolSurf_V>
927.875

>  <VolSurf_S>
615.207

>  <VolSurf_R>
1.50823

>  <VolSurf_G>
1.54638

>  <VolSurf_IW1>
0.0442908

>  <VolSurf_IW2>
0.1459

>  <VolSurf_IW3>
0.435407

>  <VolSurf_IW4>
1.02544

>  <VolSurf_ID1>
0.0301477

>  <VolSurf_ID2>
0.0463221

>  <VolSurf_ID3>
0.0669625

>  <VolSurf_ID4>
0.0858055

>  <VolSurf_HL1>
1.16276

>  <VolSurf_HL2>
0.731544

>  <VolSurf_A>
3.57501

>  <VolSurf_CP>
2.8861

>  <VolSurf_POL>
47.08

>  <VolSurf_MW>
432.493

>  <VolSurf_FLEX>
1.92803

>  <VolSurf_FLEX_RB>
0.321338

>  <VolSurf_NCC>
0.0

>  <VolSurf_LOGP n-Oct>
3.526

>  <VolSurf_LOGP c-Hex>
2.593

>  <VolSurf_PSA>
68.79

>  <VolSurf_HSA>
546.417

>  <VolSurf_PSAR>
0.111816

>  <VolSurf_PHSAR>
0.125893

>  <VolSurf_LgD5>
2.02923

>  <VolSurf_LgD6>
2.91741

>  <VolSurf_LgD7>
3.40959

>  <VolSurf_LgD7.5>
3.48442

>  <VolSurf_LgD8>
3.5081

>  <VolSurf_LgD9>
3.47773

>  <VolSurf_LgD10>
3.19459

>  <VolSurf_AUS7.4>
1.95231

>  <VolSurf_%FU4>
0.319691

>  <VolSurf_%FU5>
3.15528

>  <VolSurf_%FU6>
24.6031

>  <VolSurf_%FU7>
76.4796

>  <VolSurf_%FU8>
95.9607

>  <VolSurf_%FU9>
89.4771

>  <VolSurf_%FU10>
46.6045

>  <ID>
299

>  <MOKAID>
300

>  <Clearance Route>
metabolic

>  <PC1>
3.64704

>  <PC2>
-2.04493

$$$$
Moclobemide
  -OEChem-08301611272D

 18 19  0     0  0  0  0  0  0999 V2000
    2.5953   -7.5026    0.0000 Cl  0  0  0  0  0  0  0  0  0  0  0  0
    2.5997   -6.5027    0.0000 C   0  0  0  0  0  0  0  0  0  0  0  0
    1.7299   -5.9988    0.0000 C   0  0  0  0  0  0  0  0  0  0  0  0
    1.7342   -4.9988    0.0000 C   0  0  0  0  0  0  0  0  0  0  0  0
    2.5996   -4.4975    0.0000 C   0  0  0  0  0  0  0  0  0  0  0  0
    3.4694   -5.0014    0.0000 C   0  0  0  0  0  0  0  0  0  0  0  0
    3.4738   -6.0065    0.0000 C   0  0  0  0  0  0  0  0  0  0  0  0
    2.5996   -3.4975    0.0000 C   0  0  0  0  0  0  0  0  0  0  0  0
    3.4656   -2.9975    0.0000 O   0  0  0  0  0  0  0  0  0  0  0  0
    1.7335   -2.9975    0.0000 N   0  0  0  0  0  0  0  0  0  0  0  0
    1.7335   -1.9975    0.0000 C   0  0  0  0  0  0  0  0  0  0  0  0
    0.8675   -1.4975    0.0000 C   0  0  0  0  0  0  0  0  0  0  0  0
    0.8675   -0.4975    0.0000 N   0  0  0  0  0  0  0  0  0  0  0  0
    0.0000    0.0000    0.0000 C   0  0  0  0  0  0  0  0  0  0  0  0
   -0.0000    1.0052    0.0000 C   0  0  0  0  0  0  0  0  0  0  0  0
    0.8675    1.5129    0.0000 O   0  0  0  0  0  0  0  0  0  0  0  0
    1.7350    1.0052    0.0000 C   0  0  0  0  0  0  0  0  0  0  0  0
    1.7350    0.0000    0.0000 C   0  0  0  0  0  0  0  0  0  0  0  0
  1  2  1  0  0  0  0
  2  7  2  0  0  0  0
  2  3  1  0  0  0  0
  3  4  2  0  0  0  0
  4  5  1  0  0  0  0
  5  6  2  0  0  0  0
  6  7  1  0  0  0  0
  5  8  1  0  0  0  0
  8  9  2  0  0  0  0
  8 10  1  0  0  0  0
 10 11  1  0  0  0  0
 11 12  1  0  0  0  0
 12 13  1  0  0  0  0
 13 18  1  0  0  0  0
 13 14  1  0  0  0  0
 14 15  1  0  0  0  0
 15 16  1  0  0  0  0
 16 17  1  0  0  0  0
 17 18  1  0  0  0  0
M  END
>  <Name>
Moclobemide

>  <CAS #>
71320-77-9

>  <human Clearance (mL/min/kg)>
10.0

>  <Primary mechanism (metabolic, biliary or renal)>
metabolic

>  <seqId>
614.0

>  <Code (mechanism and clearance degree index)>
M1

>  < Five M1 and R1 test groups>
M1_3

>  <formamide>
0

>  <prodrug phosphates>
0

>  <VolSurf_V>
618.625

>  <VolSurf_S>
436.907

>  <VolSurf_R>
1.41592

>  <VolSurf_G>
1.38813

>  <VolSurf_IW1>
0.0916424

>  <VolSurf_IW2>
0.319498

>  <VolSurf_IW3>
0.70062

>  <VolSurf_IW4>
1.00678

>  <VolSurf_ID1>
0.117377

>  <VolSurf_ID2>
0.216679

>  <VolSurf_ID3>
0.224414

>  <VolSurf_ID4>
0.289579

>  <VolSurf_HL1>
1.44444

>  <VolSurf_HL2>
1.06985

>  <VolSurf_A>
7.02106

>  <VolSurf_CP>
0.580459

>  <VolSurf_POL>
27.693

>  <VolSurf_MW>
268.739

>  <VolSurf_FLEX>
1.44726

>  <VolSurf_FLEX_RB>
0.361814

>  <VolSurf_NCC>
0.0

>  <VolSurf_LOGP n-Oct>
1.446

>  <VolSurf_LOGP c-Hex>
-0.223

>  <VolSurf_PSA>
44.87

>  <VolSurf_HSA>
392.037

>  <VolSurf_PSAR>
0.102699

>  <VolSurf_PHSAR>
0.114454

>  <VolSurf_LgD5>
-0.354908

>  <VolSurf_LgD6>
0.579877

>  <VolSurf_LgD7>
1.23222

>  <VolSurf_LgD7.5>
1.3664

>  <VolSurf_LgD8>
1.41921

>  <VolSurf_LgD9>
1.44319

>  <VolSurf_LgD10>
1.44513

>  <VolSurf_AUS7.4>
1.90572

>  <VolSurf_%FU4>
0.156898

>  <VolSurf_%FU5>
1.54713

>  <VolSurf_%FU6>
13.5804

>  <VolSurf_%FU7>
61.1113

>  <VolSurf_%FU8>
94.0159

>  <VolSurf_%FU9>
99.3541

>  <VolSurf_%FU10>
99.7998

>  <ID>
300

>  <MOKAID>
301

>  <Clearance Route>
metabolic

>  <PC1>
2.35868

>  <PC2>
2.2860099999999997

$$$$
Molsidomine
  -OEChem-08301611272D

 17 18  0     0  0  0  0  0  0999 V2000
    0.8675   -1.4975    0.0000 N   0  3  0  0  0  0  0  0  0  0  0  0
    0.8675   -0.4975    0.0000 N   0  0  0  0  0  0  0  0  0  0  0  0
    0.0000    0.0000    0.0000 C   0  0  0  0  0  0  0  0  0  0  0  0
   -0.0000    1.0052    0.0000 C   0  0  0  0  0  0  0  0  0  0  0  0
    0.8675    1.5129    0.0000 O   0  0  0  0  0  0  0  0  0  0  0  0
    1.7350    1.0052    0.0000 C   0  0  0  0  0  0  0  0  0  0  0  0
    1.7350    0.0000    0.0000 C   0  0  0  0  0  0  0  0  0  0  0  0
    1.6784   -2.0852    0.0000 C   0  0  0  0  0  0  0  0  0  0  0  0
    1.3681   -3.0357    0.0000 C   0  0  0  0  0  0  0  0  0  0  0  0
    1.9572   -3.8438    0.0000 N   0  5  0  0  0  3  0  0  0  0  0  0
    2.9515   -3.7377    0.0000 C   0  0  0  0  0  0  0  0  0  0  0  0
    3.5406   -4.5457    0.0000 O   0  0  0  0  0  0  0  0  0  0  0  0
    4.5350   -4.4396    0.0000 C   0  0  0  0  0  0  0  0  0  0  0  0
    5.1241   -5.2477    0.0000 C   0  0  0  0  0  0  0  0  0  0  0  0
    3.3568   -2.8235    0.0000 O   0  0  0  0  0  0  0  0  0  0  0  0
    0.3677   -3.0404    0.0000 O   0  0  0  0  0  0  0  0  0  0  0  0
    0.0565   -2.0852    0.0000 N   0  0  0  0  0  0  0  0  0  0  0  0
  1 17  2  0  0  0  0
  1  2  1  0  0  0  0
  2  7  1  0  0  0  0
  2  3  1  0  0  0  0
  3  4  1  0  0  0  0
  4  5  1  0  0  0  0
  5  6  1  0  0  0  0
  6  7  1  0  0  0  0
  1  8  1  0  0  0  0
  8  9  2  0  0  0  0
  9 10  1  0  0  0  0
 10 11  1  0  0  0  0
 11 12  1  0  0  0  0
 12 13  1  0  0  0  0
 13 14  1  0  0  0  0
 11 15  2  0  0  0  0
  9 16  1  0  0  0  0
 16 17  1  0  0  0  0
M  CHG  2   1   1  10  -1
M  END
>  <Name>
Molsidomine

>  <CAS #>
25717-80-0

>  <human Clearance (mL/min/kg)>
11.0

>  <Primary mechanism (metabolic, biliary or renal)>
metabolic

>  <seqId>
616.0

>  <Code (mechanism and clearance degree index)>
M1

>  < Five M1 and R1 test groups>
M1_2

>  <formamide>
0

>  <prodrug phosphates>
0

>  <VolSurf_V>
543.0

>  <VolSurf_S>
400.932

>  <VolSurf_R>
1.35434

>  <VolSurf_G>
1.39021

>  <VolSurf_IW1>
0.048767

>  <VolSurf_IW2>
0.0958602

>  <VolSurf_IW3>
0.323666

>  <VolSurf_IW4>
0.689424

>  <VolSurf_ID1>
0.0168242

>  <VolSurf_ID2>
0.0852813

>  <VolSurf_ID3>
0.106777

>  <VolSurf_ID4>
0.161851

>  <VolSurf_HL1>
7.96667

>  <VolSurf_HL2>
4.18462

>  <VolSurf_A>
2.20508

>  <VolSurf_CP>
0.346602

>  <VolSurf_POL>
21.363

>  <VolSurf_MW>
243.24

>  <VolSurf_FLEX>
0.644464

>  <VolSurf_FLEX_RB>
0.128893

>  <VolSurf_NCC>
1.0

>  <VolSurf_LOGP n-Oct>
-2.291

>  <VolSurf_LOGP c-Hex>
-1.833

>  <VolSurf_PSA>
83.97

>  <VolSurf_HSA>
316.962

>  <VolSurf_PSAR>
0.209437

>  <VolSurf_PHSAR>
0.264921

>  <VolSurf_LgD5>
-2.291

>  <VolSurf_LgD6>
-2.29102

>  <VolSurf_LgD7>
-2.29121

>  <VolSurf_LgD7.5>
-2.29166

>  <VolSurf_LgD8>
-2.29308

>  <VolSurf_LgD9>
-2.31136

>  <VolSurf_LgD10>
-2.46096

>  <VolSurf_AUS7.4>
0.0

>  <VolSurf_%FU4>
0.0

>  <VolSurf_%FU5>
0.0

>  <VolSurf_%FU6>
0.0

>  <VolSurf_%FU7>
0.0

>  <VolSurf_%FU8>
0.0

>  <VolSurf_%FU9>
0.0

>  <VolSurf_%FU10>
0.0

>  <ID>
301

>  <MOKAID>
302

>  <Clearance Route>
renal

>  <PC1>
-2.40593

>  <PC2>
1.20134

$$$$
Montelukast
  -OEChem-08301611272D

 41 45  0     1  0  0  0  0  0999 V2000
    7.8221    6.4911    0.0000 C   0  0  0  0  0  0  0  0  0  0  0  0
    8.6891    5.9929    0.0000 C   0  0  0  0  0  0  0  0  0  0  0  0
    9.1873    6.8599    0.0000 C   0  0  0  0  0  0  0  0  0  0  0  0
    8.1909    5.1258    0.0000 O   0  0  0  0  0  0  0  0  0  0  0  0
    9.5562    5.4947    0.0000 C   0  0  0  0  0  0  0  0  0  0  0  0
   10.4219    5.9952    0.0000 C   0  0  0  0  0  0  0  0  0  0  0  0
   11.2912    5.5008    0.0000 C   0  0  0  0  0  0  0  0  0  0  0  0
   11.2947    4.4956    0.0000 C   0  0  0  0  0  0  0  0  0  0  0  0
   10.4290    3.9848    0.0000 C   0  0  0  0  0  0  0  0  0  0  0  0
    9.5597    4.4895    0.0000 C   0  0  0  0  0  0  0  0  0  0  0  0
    8.6940    3.9890    0.0000 C   0  0  0  0  0  0  0  0  0  0  0  0
    8.6945    2.9890    0.0000 C   0  0  0  0  0  0  0  0  0  0  0  0
    7.8288    2.4885    0.0000 C   0  0  1  0  0  0  0  0  0  0  0  0
    7.8294    1.4885    0.0000 S   0  0  0  0  0  0  0  0  0  0  0  0
    8.6957    0.9890    0.0000 C   0  0  0  0  0  0  0  0  0  0  0  0
    8.6962   -0.0110    0.0000 C   0  0  0  0  0  0  0  0  0  0  0  0
    9.6810   -0.1848    0.0000 C   0  0  0  0  0  0  0  0  0  0  0  0
   10.3239    0.5811    0.0000 C   0  0  0  0  0  0  0  0  0  0  0  0
    9.9821    1.5209    0.0000 O   0  0  0  0  0  0  0  0  0  0  0  0
   11.3087    0.4073    0.0000 O   0  0  0  0  0  0  0  0  0  0  0  0
    7.7098   -0.1863    0.0000 C   0  0  0  0  0  0  0  0  0  0  0  0
    8.3528   -0.9522    0.0000 C   0  0  0  0  0  0  0  0  0  0  0  0
    6.9625    2.9880    0.0000 C   0  0  0  0  0  0  0  0  0  0  0  0
    6.9649    3.9932    0.0000 C   0  0  0  0  0  0  0  0  0  0  0  0
    6.0986    4.4928    0.0000 C   0  0  0  0  0  0  0  0  0  0  0  0
    5.2299    3.9973    0.0000 C   0  0  0  0  0  0  0  0  0  0  0  0
    5.2275    2.9921    0.0000 C   0  0  0  0  0  0  0  0  0  0  0  0
    4.3588    2.4968    0.0000 C   0  0  0  0  0  0  0  0  0  0  0  0
    4.3535    1.4968    0.0000 C   0  0  0  0  0  0  0  0  0  0  0  0
    3.4848    1.0014    0.0000 C   0  0  0  0  0  0  0  0  0  0  0  0
    3.4805   -0.0073    0.0000 C   0  0  0  0  0  0  0  0  0  0  0  0
    2.6039   -0.5053    0.0000 C   0  0  0  0  0  0  0  0  0  0  0  0
    1.7371   -0.0000    0.0000 C   0  0  0  0  0  0  0  0  0  0  0  0
    0.8707   -0.4993    0.0000 C   0  0  0  0  0  0  0  0  0  0  0  0
    0.0000    0.0000    0.0000 C   0  0  0  0  0  0  0  0  0  0  0  0
   -0.0000    1.0089    0.0000 C   0  0  0  0  0  0  0  0  0  0  0  0
   -0.8675    1.5063    0.0000 Cl  0  0  0  0  0  0  0  0  0  0  0  0
    0.8707    1.5185    0.0000 C   0  0  0  0  0  0  0  0  0  0  0  0
    1.7414    1.0089    0.0000 C   0  0  0  0  0  0  0  0  0  0  0  0
    2.6125    1.5125    0.0000 N   0  0  0  0  0  0  0  0  0  0  0  0
    6.0938    2.4824    0.0000 C   0  0  0  0  0  0  0  0  0  0  0  0
  1  2  1  0  0  0  0
  2  3  1  0  0  0  0
  2  4  1  0  0  0  0
  2  5  1  0  0  0  0
  5 10  2  0  0  0  0
  5  6  1  0  0  0  0
  6  7  2  0  0  0  0
  7  8  1  0  0  0  0
  8  9  2  0  0  0  0
  9 10  1  0  0  0  0
 10 11  1  0  0  0  0
 11 12  1  0  0  0  0
 13 12  1  1  0  0  0
 13 14  1  0  0  0  0
 14 15  1  0  0  0  0
 15 16  1  0  0  0  0
 16 22  1  0  0  0  0
 16 17  1  0  0  0  0
 17 18  1  0  0  0  0
 18 19  2  0  0  0  0
 18 20  1  0  0  0  0
 16 21  1  0  0  0  0
 21 22  1  0  0  0  0
 13 23  1  0  0  0  0
 23 41  2  0  0  0  0
 23 24  1  0  0  0  0
 24 25  2  0  0  0  0
 25 26  1  0  0  0  0
 26 27  2  0  0  0  0
 27 28  1  0  0  0  0
 28 29  2  0  0  0  0
 29 30  1  0  0  0  0
 30 40  2  0  0  0  0
 30 31  1  0  0  0  0
 31 32  2  0  0  0  0
 32 33  1  0  0  0  0
 33 39  2  0  0  0  0
 33 34  1  0  0  0  0
 34 35  2  0  0  0  0
 35 36  1  0  0  0  0
 36 37  1  0  0  0  0
 36 38  2  0  0  0  0
 38 39  1  0  0  0  0
 39 40  1  0  0  0  0
 27 41  1  0  0  0  0
M  END
>  <Name>
Montelukast

>  <CAS #>
158966-92-8

>  <human Clearance (mL/min/kg)>
0.68

>  <Primary mechanism (metabolic, biliary or renal)>
metabolic

>  <seqId>
618.0

>  <Code (mechanism and clearance degree index)>
M1

>  < Five M1 and R1 test groups>
M1_3

>  <formamide>
0

>  <prodrug phosphates>
0

>  <VolSurf_V>
1291.0

>  <VolSurf_S>
842.423

>  <VolSurf_R>
1.53248

>  <VolSurf_G>
1.78091

>  <VolSurf_IW1>
0.0344718

>  <VolSurf_IW2>
0.14145

>  <VolSurf_IW3>
0.418198

>  <VolSurf_IW4>
0.727556

>  <VolSurf_ID1>
0.0370149

>  <VolSurf_ID2>
0.102959

>  <VolSurf_ID3>
0.168268

>  <VolSurf_ID4>
0.235106

>  <VolSurf_HL1>
1.30077

>  <VolSurf_HL2>
1.25

>  <VolSurf_A>
7.81285

>  <VolSurf_CP>
0.767295

>  <VolSurf_POL>
65.332

>  <VolSurf_MW>
585.175

>  <VolSurf_FLEX>
3.82256

>  <VolSurf_FLEX_RB>
0.254837

>  <VolSurf_NCC>
1.0

>  <VolSurf_LOGP n-Oct>
8.293

>  <VolSurf_LOGP c-Hex>
4.426

>  <VolSurf_PSA>
90.75

>  <VolSurf_HSA>
751.673

>  <VolSurf_PSAR>
0.107725

>  <VolSurf_PHSAR>
0.120731

>  <VolSurf_LgD5>
5.60709

>  <VolSurf_LgD6>
5.07213

>  <VolSurf_LgD7>
4.8326

>  <VolSurf_LgD7.5>
4.80597

>  <VolSurf_LgD8>
4.79715

>  <VolSurf_LgD9>
4.79342

>  <VolSurf_LgD10>
4.79304

>  <VolSurf_AUS7.4>
0.0

>  <VolSurf_%FU4>
0.0

>  <VolSurf_%FU5>
0.0

>  <VolSurf_%FU6>
0.0

>  <VolSurf_%FU7>
0.0

>  <VolSurf_%FU8>
0.0

>  <VolSurf_%FU9>
0.0

>  <VolSurf_%FU10>
0.0

>  <ID>
302

>  <MOKAID>
303

>  <Clearance Route>
possible billary

>  <PC1>
3.15341

>  <PC2>
-4.7466

$$$$
Morphine
  -OEChem-08301611272D

 24 28  0     1  0  0  0  0  0999 V2000
    3.5607   -3.5661    0.0000 C   0  0  0  0  0  0  0  0  0  0  0  0
    2.5608   -3.5551    0.0000 N   0  0  3  0  0  0  0  0  0  0  0  0
    1.6860   -4.0481    0.0000 C   0  0  0  0  0  0  0  0  0  0  0  0
   -0.0518   -4.0277    0.0000 C   0  0  0  0  0  0  0  0  0  0  0  0
   -0.0423   -3.0217    0.0000 C   0  0  2  0  0  0  0  0  0  0  0  0
   -0.9106   -3.5298    0.0000 C   0  0  1  0  0  0  0  0  0  0  0  0
   -1.7134   -2.5237    0.0000 O   0  0  0  0  0  0  0  0  0  0  0  0
   -0.9039   -1.5034    0.0000 C   0  0  0  0  0  0  0  0  0  0  0  0
   -0.8842   -0.4903    0.0000 C   0  0  0  0  0  0  0  0  0  0  0  0
   -1.7409    0.0255    0.0000 O   0  0  0  0  0  0  0  0  0  0  0  0
   -0.0000   -0.0000    0.0000 C   0  0  0  0  0  0  0  0  0  0  0  0
    0.8648   -0.5226    0.0000 C   0  0  0  0  0  0  0  0  0  0  0  0
    0.8474   -1.5281    0.0000 C   0  0  0  0  0  0  0  0  0  0  0  0
    1.7083   -2.0368    0.0000 C   0  0  0  0  0  0  0  0  0  0  0  0
    1.6954   -3.0420    0.0000 C   0  0  2  0  0  0  0  0  0  0  0  0
    0.8239   -3.5335    0.0000 C   0  0  2  0  0  0  0  0  0  0  0  0
    0.8260   -4.5359    0.0000 C   0  0  0  0  0  0  0  0  0  0  0  0
   -0.0423   -5.0338    0.0000 C   0  0  0  0  0  0  0  0  0  0  0  0
   -0.9106   -4.5359    0.0000 C   0  0  2  0  0  0  0  0  0  0  0  0
   -1.7759   -5.0372    0.0000 O   0  0  0  0  0  0  0  0  0  0  0  0
   -0.0369   -2.0184    0.0000 C   0  0  0  0  0  0  0  0  0  0  0  0
   -1.8544   -3.8602    0.0000 H   0  0  0  0  0  0  0  0  0  0  0  0
    0.8352   -2.5321    0.0000 H   0  0  0  0  0  0  0  0  0  0  0  0
    1.6879   -4.0370    0.0000 H   0  0  0  0  0  0  0  0  0  0  0  0
  1  2  1  0  0  0  0
  2 15  1  0  0  0  0
  2  3  1  0  0  0  0
  3  4  1  0  0  0  0
  5  4  1  1  0  0  0
  5 16  1  0  0  0  0
  5 21  1  0  0  0  0
  5  6  1  0  0  0  0
  6 19  1  0  0  0  0
  6  7  1  0  0  0  0
  7  8  1  0  0  0  0
  8 21  2  0  0  0  0
  8  9  1  0  0  0  0
  9 10  1  0  0  0  0
  9 11  2  0  0  0  0
 11 12  1  0  0  0  0
 12 13  2  0  0  0  0
 13 14  1  0  0  0  0
 14 15  1  0  0  0  0
 15 16  1  0  0  0  0
 16 17  1  0  0  0  0
 17 18  2  0  0  0  0
 18 19  1  0  0  0  0
 19 20  1  6  0  0  0
 13 21  1  0  0  0  0
  6 22  1  1  0  0  0
 15 23  1  6  0  0  0
 16 24  1  1  0  0  0
M  END
>  <Name>
Morphine

>  <CAS #>
57-27-2

>  <human Clearance (mL/min/kg)>
26.0

>  <Primary mechanism (metabolic, biliary or renal)>
metabolic

>  <seqId>
620.0

>  <Code (mechanism and clearance degree index)>
M1

>  < Five M1 and R1 test groups>
M1_5

>  <formamide>
0

>  <prodrug phosphates>
0

>  <VolSurf_V>
600.0

>  <VolSurf_S>
393.376

>  <VolSurf_R>
1.52526

>  <VolSurf_G>
1.22274

>  <VolSurf_IW1>
0.114413

>  <VolSurf_IW2>
0.350494

>  <VolSurf_IW3>
0.749999

>  <VolSurf_IW4>
1.15757

>  <VolSurf_ID1>
0.040915

>  <VolSurf_ID2>
0.0786904

>  <VolSurf_ID3>
0.21173

>  <VolSurf_ID4>
0.304567

>  <VolSurf_HL1>
3.17341

>  <VolSurf_HL2>
3.31169

>  <VolSurf_A>
4.72549

>  <VolSurf_CP>
0.662228

>  <VolSurf_POL>
32.516

>  <VolSurf_MW>
286.345

>  <VolSurf_FLEX>
1.8205E-6

>  <VolSurf_FLEX_RB>
6.06832E-7

>  <VolSurf_NCC>
1.0

>  <VolSurf_LOGP n-Oct>
1.124

>  <VolSurf_LOGP c-Hex>
-1.895

>  <VolSurf_PSA>
63.3

>  <VolSurf_HSA>
330.076

>  <VolSurf_PSAR>
0.160915

>  <VolSurf_PHSAR>
0.191774

>  <VolSurf_LgD5>
-1.37215

>  <VolSurf_LgD6>
-1.04255

>  <VolSurf_LgD7>
-0.2563

>  <VolSurf_LgD7.5>
0.188698

>  <VolSurf_LgD8>
0.583718

>  <VolSurf_LgD9>
0.933991

>  <VolSurf_LgD10>
0.544413

>  <VolSurf_AUS7.4>
0.997378

>  <VolSurf_%FU4>
0.00405609

>  <VolSurf_%FU5>
0.0405461

>  <VolSurf_%FU6>
0.403986

>  <VolSurf_%FU7>
3.89764

>  <VolSurf_%FU8>
28.5922

>  <VolSurf_%FU9>
63.783

>  <VolSurf_%FU10>
23.5986

>  <ID>
303

>  <MOKAID>
304

>  <Clearance Route>
uncertain

>  <PC1>
0.622095

>  <PC2>
1.90353

$$$$
Moxonidine
  -OEChem-08301611272D

 16 17  0     0  0  0  0  0  0999 V2000
   -0.8704    2.5026    0.0000 C   0  0  0  0  0  0  0  0  0  0  0  0
   -0.8675    1.5026    0.0000 O   0  0  0  0  0  0  0  0  0  0  0  0
   -0.0000    1.0052    0.0000 C   0  0  0  0  0  0  0  0  0  0  0  0
    0.8675    1.5129    0.0000 N   0  0  0  0  0  0  0  0  0  0  0  0
    1.7350    1.0052    0.0000 C   0  0  0  0  0  0  0  0  0  0  0  0
    2.6025    1.5026    0.0000 C   0  0  0  0  0  0  0  0  0  0  0  0
    1.7350    0.0000    0.0000 N   0  0  0  0  0  0  0  0  0  0  0  0
    0.8675   -0.4975    0.0000 C   0  0  0  0  0  0  0  0  0  0  0  0
    0.8675   -1.4975    0.0000 Cl  0  0  0  0  0  0  0  0  0  0  0  0
    0.0000    0.0000    0.0000 C   0  0  0  0  0  0  0  0  0  0  0  0
   -0.8653   -0.5013    0.0000 N   0  0  0  0  0  0  0  0  0  0  0  0
   -0.8638   -1.5013    0.0000 C   0  0  0  0  0  0  0  0  0  0  0  0
   -0.0532   -2.0896    0.0000 N   0  0  0  0  0  0  0  0  0  0  0  0
   -0.3600   -3.0428    0.0000 C   0  0  0  0  0  0  0  0  0  0  0  0
   -1.3600   -3.0430    0.0000 C   0  0  0  0  0  0  0  0  0  0  0  0
   -1.6750   -2.0936    0.0000 N   0  0  0  0  0  0  0  0  0  0  0  0
  1  2  1  0  0  0  0
  2  3  1  0  0  0  0
  3 10  2  0  0  0  0
  3  4  1  0  0  0  0
  4  5  2  0  0  0  0
  5  6  1  0  0  0  0
  5  7  1  0  0  0  0
  7  8  2  0  0  0  0
  8  9  1  0  0  0  0
  8 10  1  0  0  0  0
 10 11  1  0  0  0  0
 11 12  1  0  0  0  0
 12 16  1  0  0  0  0
 12 13  2  0  0  0  0
 13 14  1  0  0  0  0
 14 15  1  0  0  0  0
 15 16  1  0  0  0  0
M  END
>  <Name>
Moxonidine

>  <CAS #>
75438-57-2

>  <human Clearance (mL/min/kg)>
11.0

>  <Primary mechanism (metabolic, biliary or renal)>
renal

>  <seqId>
624.0

>  <Code (mechanism and clearance degree index)>
R1

>  < Five M1 and R1 test groups>
R1_5

>  <formamide>
0

>  <prodrug phosphates>
0

>  <VolSurf_V>
520.5

>  <VolSurf_S>
375.875

>  <VolSurf_R>
1.38477

>  <VolSurf_G>
1.31649

>  <VolSurf_IW1>
0.0352642

>  <VolSurf_IW2>
0.122479

>  <VolSurf_IW3>
0.257715

>  <VolSurf_IW4>
0.784584

>  <VolSurf_ID1>
0.0384657

>  <VolSurf_ID2>
0.124593

>  <VolSurf_ID3>
0.212071

>  <VolSurf_ID4>
0.423626

>  <VolSurf_HL1>
3.17045

>  <VolSurf_HL2>
2.01639

>  <VolSurf_A>
2.34446

>  <VolSurf_CP>
0.599533

>  <VolSurf_POL>
23.865

>  <VolSurf_MW>
242.685

>  <VolSurf_FLEX>
0.862178

>  <VolSurf_FLEX_RB>
0.172436

>  <VolSurf_NCC>
1.0

>  <VolSurf_LOGP n-Oct>
0.55

>  <VolSurf_LOGP c-Hex>
-0.556

>  <VolSurf_PSA>
72.78

>  <VolSurf_HSA>
303.095

>  <VolSurf_PSAR>
0.193628

>  <VolSurf_PHSAR>
0.240123

>  <VolSurf_LgD5>
-1.97683

>  <VolSurf_LgD6>
-1.03054

>  <VolSurf_LgD7>
-0.12633

>  <VolSurf_LgD7.5>
0.210438

>  <VolSurf_LgD8>
0.411697

>  <VolSurf_LgD9>
0.53401

>  <VolSurf_LgD10>
0.548374

>  <VolSurf_AUS7.4>
1.6107

>  <VolSurf_%FU4>
0.0265634

>  <VolSurf_%FU5>
0.265757

>  <VolSurf_%FU6>
2.59621

>  <VolSurf_%FU7>
21.0453

>  <VolSurf_%FU8>
72.7186

>  <VolSurf_%FU9>
96.384

>  <VolSurf_%FU10>
99.6262

>  <ID>
304

>  <MOKAID>
305

>  <Clearance Route>
metabolic

>  <PC1>
0.9755520000000001

>  <PC2>
1.2001899999999999

$$$$
Mycophenolic acid
  -OEChem-08301611272D

 23 24  0     0  0  0  0  0  0999 V2000
    1.7360   -1.0071    0.0000 C   0  0  0  0  0  0  0  0  0  0  0  0
    1.7360   -0.0000    0.0000 C   0  0  0  0  0  0  0  0  0  0  0  0
    0.8680    0.5079    0.0000 C   0  0  0  0  0  0  0  0  0  0  0  0
    0.0000    0.0000    0.0000 C   0  0  0  0  0  0  0  0  0  0  0  0
   -0.8675    0.4975    0.0000 C   0  0  0  0  0  0  0  0  0  0  0  0
   -1.7320   -0.0050    0.0000 C   0  0  0  0  0  0  0  0  0  0  0  0
   -2.5995    0.4924    0.0000 C   0  0  0  0  0  0  0  0  0  0  0  0
   -3.4641   -0.0101    0.0000 C   0  0  0  0  0  0  0  0  0  0  0  0
   -4.3316    0.4874    0.0000 C   0  0  0  0  0  0  0  0  0  0  0  0
   -5.1961   -0.0151    0.0000 C   0  0  0  0  0  0  0  0  0  0  0  0
   -6.0636    0.4824    0.0000 O   0  0  0  0  0  0  0  0  0  0  0  0
   -5.1932   -1.0151    0.0000 O   0  0  0  0  0  0  0  0  0  0  0  0
   -2.6024    1.4924    0.0000 C   0  0  0  0  0  0  0  0  0  0  0  0
   -0.0000   -1.0058    0.0000 C   0  0  0  0  0  0  0  0  0  0  0  0
    0.8680   -1.5037    0.0000 C   0  0  0  0  0  0  0  0  0  0  0  0
    0.8674   -2.5037    0.0000 C   0  0  0  0  0  0  0  0  0  0  0  0
   -0.8653   -1.5070    0.0000 O   0  0  0  0  0  0  0  0  0  0  0  0
   -0.8639   -2.5070    0.0000 C   0  0  0  0  0  0  0  0  0  0  0  0
    0.8680    1.5079    0.0000 O   0  0  0  0  0  0  0  0  0  0  0  0
    2.6938    0.3110    0.0000 C   0  0  0  0  0  0  0  0  0  0  0  0
    3.0029    1.2620    0.0000 O   0  0  0  0  0  0  0  0  0  0  0  0
    3.2858   -0.5036    0.0000 O   0  0  0  0  0  0  0  0  0  0  0  0
    2.6938   -1.3184    0.0000 C   0  0  0  0  0  0  0  0  0  0  0  0
  1 15  2  0  0  0  0
  1 23  1  0  0  0  0
  1  2  1  0  0  0  0
  2  3  2  0  0  0  0
  3  4  1  0  0  0  0
  4  5  1  0  0  0  0
  5  6  1  0  0  0  0
  6  7  2  0  0  0  0
  7  8  1  0  0  0  0
  8  9  1  0  0  0  0
  9 10  1  0  0  0  0
 10 11  1  0  0  0  0
 10 12  2  0  0  0  0
  7 13  1  0  0  0  0
  4 14  2  0  0  0  0
 14 15  1  0  0  0  0
 15 16  1  0  0  0  0
 14 17  1  0  0  0  0
 17 18  1  0  0  0  0
  3 19  1  0  0  0  0
  2 20  1  0  0  0  0
 20 21  2  0  0  0  0
 20 22  1  0  0  0  0
 22 23  1  0  0  0  0
M  END
>  <Name>
Mycophenolic acid

>  <CAS #>
24280-93-1

>  <human Clearance (mL/min/kg)>
2.33

>  <Primary mechanism (metabolic, biliary or renal)>
metabolic

>  <seqId>
625.0

>  <Code (mechanism and clearance degree index)>
M1

>  < Five M1 and R1 test groups>
M1_3

>  <formamide>
0

>  <prodrug phosphates>
0

>  <VolSurf_V>
711.375

>  <VolSurf_S>
487.033

>  <VolSurf_R>
1.46063

>  <VolSurf_G>
1.42073

>  <VolSurf_IW1>
0.0937789

>  <VolSurf_IW2>
0.225837

>  <VolSurf_IW3>
0.669856

>  <VolSurf_IW4>
1.23571

>  <VolSurf_ID1>
0.0552262

>  <VolSurf_ID2>
0.102424

>  <VolSurf_ID3>
0.14165

>  <VolSurf_ID4>
0.205648

>  <VolSurf_HL1>
3.88519

>  <VolSurf_HL2>
2.7868

>  <VolSurf_A>
5.38135

>  <VolSurf_CP>
0.538442

>  <VolSurf_POL>
31.766

>  <VolSurf_MW>
319.329

>  <VolSurf_FLEX>
1.759

>  <VolSurf_FLEX_RB>
0.1759

>  <VolSurf_NCC>
1.0

>  <VolSurf_LOGP n-Oct>
3.241

>  <VolSurf_LOGP c-Hex>
-2.888

>  <VolSurf_PSA>
104.08

>  <VolSurf_HSA>
382.953

>  <VolSurf_PSAR>
0.213702

>  <VolSurf_PHSAR>
0.271783

>  <VolSurf_LgD5>
2.71669

>  <VolSurf_LgD6>
1.85677

>  <VolSurf_LgD7>
0.912145

>  <VolSurf_LgD7.5>
0.495051

>  <VolSurf_LgD8>
0.183448

>  <VolSurf_LgD9>
-0.068124

>  <VolSurf_LgD10>
-0.123497

>  <VolSurf_AUS7.4>
0.0

>  <VolSurf_%FU4>
80.9854

>  <VolSurf_%FU5>
29.8694

>  <VolSurf_%FU6>
4.08509

>  <VolSurf_%FU7>
0.424082

>  <VolSurf_%FU8>
0.0425502

>  <VolSurf_%FU9>
0.00423631

>  <VolSurf_%FU10>
4.0433E-4

>  <ID>
305

>  <MOKAID>
306

>  <Clearance Route>
uncertain

>  <PC1>
0.444359

>  <PC2>
0.230787

$$$$
Nadolol
  -OEChem-08301611272D

 22 23  0     1  0  0  0  0  0999 V2000
    4.3320    6.5135    0.0000 C   0  0  0  0  0  0  0  0  0  0  0  0
    3.4660    6.0135    0.0000 C   0  0  0  0  0  0  0  0  0  0  0  0
    3.9660    5.1475    0.0000 C   0  0  0  0  0  0  0  0  0  0  0  0
    2.9660    6.8795    0.0000 C   0  0  0  0  0  0  0  0  0  0  0  0
    2.6000    5.5135    0.0000 N   0  0  0  0  0  0  0  0  0  0  0  0
    2.6000    4.5135    0.0000 C   0  0  0  0  0  0  0  0  0  0  0  0
    1.7339    4.0135    0.0000 C   0  0  3  0  0  0  0  0  0  0  0  0
    0.8679    4.5135    0.0000 O   0  0  0  0  0  0  0  0  0  0  0  0
    1.7339    3.0135    0.0000 C   0  0  0  0  0  0  0  0  0  0  0  0
    0.8679    2.5135    0.0000 O   0  0  0  0  0  0  0  0  0  0  0  0
    0.8679    1.5135    0.0000 C   0  0  0  0  0  0  0  0  0  0  0  0
    0.0000    1.0057    0.0000 C   0  0  0  0  0  0  0  0  0  0  0  0
    0.0000    0.0000    0.0000 C   0  0  0  0  0  0  0  0  0  0  0  0
    0.8679   -0.4978    0.0000 C   0  0  0  0  0  0  0  0  0  0  0  0
    1.7371   -0.0000    0.0000 C   0  0  0  0  0  0  0  0  0  0  0  0
    2.6038   -0.4989    0.0000 C   0  0  0  0  0  0  0  0  0  0  0  0
    3.4748    0.0022    0.0000 C   0  0  3  0  0  0  0  0  0  0  0  0
    4.3408   -0.4979    0.0000 O   0  0  0  0  0  0  0  0  0  0  0  0
    3.4735    1.0079    0.0000 C   0  0  3  0  0  0  0  0  0  0  0  0
    4.3394    1.5081    0.0000 O   0  0  0  0  0  0  0  0  0  0  0  0
    2.6012    1.5124    0.0000 C   0  0  0  0  0  0  0  0  0  0  0  0
    1.7358    1.0057    0.0000 C   0  0  0  0  0  0  0  0  0  0  0  0
  1  2  1  0  0  0  0
  2  3  1  0  0  0  0
  2  4  1  0  0  0  0
  2  5  1  0  0  0  0
  5  6  1  0  0  0  0
  6  7  1  0  0  0  0
  7  8  1  0  0  0  0
  7  9  1  0  0  0  0
  9 10  1  0  0  0  0
 10 11  1  0  0  0  0
 11 22  2  0  0  0  0
 11 12  1  0  0  0  0
 12 13  2  0  0  0  0
 13 14  1  0  0  0  0
 14 15  2  0  0  0  0
 15 22  1  0  0  0  0
 15 16  1  0  0  0  0
 16 17  1  0  0  0  0
 17 18  1  0  0  0  0
 17 19  1  0  0  0  0
 19 20  1  0  0  0  0
 19 21  1  0  0  0  0
 21 22  1  0  0  0  0
M  END
>  <Name>
Nadolol

>  <CAS #>
42200-33-9

>  <human Clearance (mL/min/kg)>
2.9

>  <Primary mechanism (metabolic, biliary or renal)>
renal

>  <seqId>
626.0

>  <Code (mechanism and clearance degree index)>
R1

>  < Five M1 and R1 test groups>
R1_3

>  <formamide>
0

>  <prodrug phosphates>
0

>  <VolSurf_V>
726.125

>  <VolSurf_S>
516.66

>  <VolSurf_R>
1.40542

>  <VolSurf_G>
1.52079

>  <VolSurf_IW1>
0.0730397

>  <VolSurf_IW2>
0.169016

>  <VolSurf_IW3>
0.30809

>  <VolSurf_IW4>
0.274198

>  <VolSurf_ID1>
0.0146231

>  <VolSurf_ID2>
0.0729804

>  <VolSurf_ID3>
0.291669

>  <VolSurf_ID4>
0.367299

>  <VolSurf_HL1>
6.34132

>  <VolSurf_HL2>
10.3091

>  <VolSurf_A>
1.58082

>  <VolSurf_CP>
0.357644

>  <VolSurf_POL>
36.667

>  <VolSurf_MW>
310.408

>  <VolSurf_FLEX>
1.74375

>  <VolSurf_FLEX_RB>
0.145313

>  <VolSurf_NCC>
1.0

>  <VolSurf_LOGP n-Oct>
1.128

>  <VolSurf_LOGP c-Hex>
-1.881

>  <VolSurf_PSA>
95.7

>  <VolSurf_HSA>
420.96

>  <VolSurf_PSAR>
0.185228

>  <VolSurf_PHSAR>
0.227337

>  <VolSurf_LgD5>
-2.31113

>  <VolSurf_LgD6>
-1.97338

>  <VolSurf_LgD7>
-1.16855

>  <VolSurf_LgD7.5>
-0.691886

>  <VolSurf_LgD8>
-0.211746

>  <VolSurf_LgD9>
0.636785

>  <VolSurf_LgD10>
1.04519

>  <VolSurf_AUS7.4>
0.27449

>  <VolSurf_%FU4>
4.7596E-4

>  <VolSurf_%FU5>
0.00475939

>  <VolSurf_%FU6>
0.0475736

>  <VolSurf_%FU7>
0.473707

>  <VolSurf_%FU8>
4.54337

>  <VolSurf_%FU9>
32.2475

>  <VolSurf_%FU10>
82.6349

>  <ID>
306

>  <MOKAID>
307

>  <Clearance Route>
uncertain

>  <PC1>
-0.504062

>  <PC2>
0.163254

$$$$
Nalmefene
  -OEChem-08301611272D

 27 32  0     1  0  0  0  0  0999 V2000
   -1.7409    0.0255    0.0000 O   0  0  0  0  0  0  0  0  0  0  0  0
   -0.8842   -0.4903    0.0000 C   0  0  0  0  0  0  0  0  0  0  0  0
   -0.0000    0.0000    0.0000 C   0  0  0  0  0  0  0  0  0  0  0  0
    0.8648   -0.5226    0.0000 C   0  0  0  0  0  0  0  0  0  0  0  0
    0.8474   -1.5281    0.0000 C   0  0  0  0  0  0  0  0  0  0  0  0
    1.7083   -2.0368    0.0000 C   0  0  0  0  0  0  0  0  0  0  0  0
    1.6954   -3.0420    0.0000 C   0  0  1  0  0  0  0  0  0  0  0  0
    2.5608   -3.5551    0.0000 N   0  0  3  0  0  0  0  0  0  0  0  0
    3.5607   -3.5661    0.0000 C   0  0  0  0  0  0  0  0  0  0  0  0
    4.0702   -2.7056    0.0000 C   0  0  0  0  0  0  0  0  0  0  0  0
    4.9428   -2.2133    0.0000 C   0  0  0  0  0  0  0  0  0  0  0  0
    4.0823   -1.7038    0.0000 C   0  0  0  0  0  0  0  0  0  0  0  0
    1.6860   -4.0481    0.0000 C   0  0  0  0  0  0  0  0  0  0  0  0
   -0.0518   -4.0277    0.0000 C   0  0  0  0  0  0  0  0  0  0  0  0
   -0.0423   -3.0217    0.0000 C   0  0  1  0  0  0  0  0  0  0  0  0
   -0.9106   -3.5298    0.0000 C   0  0  1  0  0  0  0  0  0  0  0  0
   -1.7134   -2.5237    0.0000 O   0  0  0  0  0  0  0  0  0  0  0  0
   -0.9039   -1.5034    0.0000 C   0  0  0  0  0  0  0  0  0  0  0  0
   -0.0369   -2.0184    0.0000 C   0  0  0  0  0  0  0  0  0  0  0  0
   -0.9106   -4.5359    0.0000 C   0  0  0  0  0  0  0  0  0  0  0  0
   -1.7759   -5.0372    0.0000 C   0  0  0  0  0  0  0  0  0  0  0  0
   -0.0423   -5.0338    0.0000 C   0  0  0  0  0  0  0  0  0  0  0  0
    0.8260   -4.5359    0.0000 C   0  0  0  0  0  0  0  0  0  0  0  0
    0.8239   -3.5335    0.0000 C   0  0  1  0  0  0  0  0  0  0  0  0
    0.8340   -2.5336    0.0000 O   0  0  0  0  0  0  0  0  0  0  0  0
    2.5675   -2.5526    0.0000 H   0  0  0  0  0  0  0  0  0  0  0  0
   -1.8544   -3.8602    0.0000 H   0  0  0  0  0  0  0  0  0  0  0  0
  1  2  1  0  0  0  0
  2 18  2  0  0  0  0
  2  3  1  0  0  0  0
  3  4  2  0  0  0  0
  4  5  1  0  0  0  0
  5 19  2  0  0  0  0
  5  6  1  0  0  0  0
  6  7  1  0  0  0  0
  7 24  1  0  0  0  0
  7  8  1  0  0  0  0
  8  9  1  0  0  0  0
  9 10  1  0  0  0  0
 10 12  1  0  0  0  0
 10 11  1  0  0  0  0
 11 12  1  0  0  0  0
  8 13  1  0  0  0  0
 13 14  1  0  0  0  0
 15 14  1  1  0  0  0
 15 19  1  0  0  0  0
 15 24  1  0  0  0  0
 15 16  1  0  0  0  0
 16 17  1  0  0  0  0
 17 18  1  0  0  0  0
 18 19  1  0  0  0  0
 16 20  1  0  0  0  0
 20 21  2  0  0  0  0
 20 22  1  0  0  0  0
 22 23  1  0  0  0  0
 23 24  1  0  0  0  0
 24 25  1  1  0  0  0
  7 26  1  6  0  0  0
 16 27  1  1  0  0  0
M  END
>  <Name>
Nalmefene

>  <CAS #>
55096-26-9

>  <human Clearance (mL/min/kg)>
15.0

>  <Primary mechanism (metabolic, biliary or renal)>
metabolic

>  <seqId>
630.0

>  <Code (mechanism and clearance degree index)>
M1

>  < Five M1 and R1 test groups>
M1_1

>  <formamide>
0

>  <prodrug phosphates>
0

>  <VolSurf_V>
731.125

>  <VolSurf_S>
477.973

>  <VolSurf_R>
1.52964

>  <VolSurf_G>
1.34396

>  <VolSurf_IW1>
0.0633813

>  <VolSurf_IW2>
0.221884

>  <VolSurf_IW3>
0.488044

>  <VolSurf_IW4>
0.624379

>  <VolSurf_ID1>
0.0240606

>  <VolSurf_ID2>
0.0687147

>  <VolSurf_ID3>
0.211056

>  <VolSurf_ID4>
0.331955

>  <VolSurf_HL1>
1.47561

>  <VolSurf_HL2>
1.44231

>  <VolSurf_A>
3.17897

>  <VolSurf_CP>
1.13665

>  <VolSurf_POL>
39.082

>  <VolSurf_MW>
340.436

>  <VolSurf_FLEX>
0.376603

>  <VolSurf_FLEX_RB>
0.0941509

>  <VolSurf_NCC>
1.0

>  <VolSurf_LOGP n-Oct>
2.488

>  <VolSurf_LOGP c-Hex>
-0.264

>  <VolSurf_PSA>
63.3

>  <VolSurf_HSA>
414.673

>  <VolSurf_PSAR>
0.132434

>  <VolSurf_PHSAR>
0.152651

>  <VolSurf_LgD5>
-0.0263275

>  <VolSurf_LgD6>
0.746685

>  <VolSurf_LgD7>
1.65579

>  <VolSurf_LgD7.5>
2.0342

>  <VolSurf_LgD8>
2.28775

>  <VolSurf_LgD9>
2.45443

>  <VolSurf_LgD10>
2.40013

>  <VolSurf_AUS7.4>
1.48768

>  <VolSurf_%FU4>
0.017094

>  <VolSurf_%FU5>
0.170678

>  <VolSurf_%FU6>
1.68096

>  <VolSurf_%FU7>
14.6002

>  <VolSurf_%FU8>
63.0047

>  <VolSurf_%FU9>
92.4781

>  <VolSurf_%FU10>
81.0161

>  <ID>
307

>  <MOKAID>
308

>  <Clearance Route>
metabolic

>  <PC1>
2.20444

>  <PC2>
0.113114

$$$$
Naloxone
  -OEChem-08301611272D

 26 30  0     1  0  0  0  0  0999 V2000
   -1.7409    0.0255    0.0000 O   0  0  0  0  0  0  0  0  0  0  0  0
   -0.8842   -0.4903    0.0000 C   0  0  0  0  0  0  0  0  0  0  0  0
   -0.0000    0.0000    0.0000 C   0  0  0  0  0  0  0  0  0  0  0  0
    0.8648   -0.5226    0.0000 C   0  0  0  0  0  0  0  0  0  0  0  0
    0.8474   -1.5281    0.0000 C   0  0  0  0  0  0  0  0  0  0  0  0
    1.7083   -2.0368    0.0000 C   0  0  0  0  0  0  0  0  0  0  0  0
    1.6954   -3.0420    0.0000 C   0  0  1  0  0  0  0  0  0  0  0  0
    2.5608   -3.5551    0.0000 N   0  0  3  0  0  0  0  0  0  0  0  0
    3.5607   -3.5661    0.0000 C   0  0  0  0  0  0  0  0  0  0  0  0
    4.0702   -2.7056    0.0000 C   0  0  0  0  0  0  0  0  0  0  0  0
    5.0702   -2.7166    0.0000 C   0  0  0  0  0  0  0  0  0  0  0  0
    1.6860   -4.0481    0.0000 C   0  0  0  0  0  0  0  0  0  0  0  0
   -0.0518   -4.0277    0.0000 C   0  0  0  0  0  0  0  0  0  0  0  0
   -0.0423   -3.0217    0.0000 C   0  0  1  0  0  0  0  0  0  0  0  0
   -0.9106   -3.5298    0.0000 C   0  0  1  0  0  0  0  0  0  0  0  0
   -1.7134   -2.5237    0.0000 O   0  0  0  0  0  0  0  0  0  0  0  0
   -0.9039   -1.5034    0.0000 C   0  0  0  0  0  0  0  0  0  0  0  0
   -0.0369   -2.0184    0.0000 C   0  0  0  0  0  0  0  0  0  0  0  0
   -0.9106   -4.5359    0.0000 C   0  0  0  0  0  0  0  0  0  0  0  0
   -1.7759   -5.0372    0.0000 O   0  0  0  0  0  0  0  0  0  0  0  0
   -0.0423   -5.0338    0.0000 C   0  0  0  0  0  0  0  0  0  0  0  0
    0.8260   -4.5359    0.0000 C   0  0  0  0  0  0  0  0  0  0  0  0
    0.8239   -3.5335    0.0000 C   0  0  1  0  0  0  0  0  0  0  0  0
    0.8340   -2.5336    0.0000 O   0  0  0  0  0  0  0  0  0  0  0  0
    2.5675   -2.5526    0.0000 H   0  0  0  0  0  0  0  0  0  0  0  0
   -1.8544   -3.8602    0.0000 H   0  0  0  0  0  0  0  0  0  0  0  0
  1  2  1  0  0  0  0
  2 17  2  0  0  0  0
  2  3  1  0  0  0  0
  3  4  2  0  0  0  0
  4  5  1  0  0  0  0
  5 18  2  0  0  0  0
  5  6  1  0  0  0  0
  6  7  1  0  0  0  0
  7 23  1  0  0  0  0
  7  8  1  0  0  0  0
  8  9  1  0  0  0  0
  9 10  1  0  0  0  0
 10 11  2  0  0  0  0
  8 12  1  0  0  0  0
 12 13  1  0  0  0  0
 14 13  1  1  0  0  0
 14 18  1  0  0  0  0
 14 23  1  0  0  0  0
 14 15  1  0  0  0  0
 15 16  1  0  0  0  0
 16 17  1  0  0  0  0
 17 18  1  0  0  0  0
 15 19  1  0  0  0  0
 19 20  2  0  0  0  0
 19 21  1  0  0  0  0
 21 22  1  0  0  0  0
 22 23  1  0  0  0  0
 23 24  1  1  0  0  0
  7 25  1  6  0  0  0
 15 26  1  1  0  0  0
M  END
>  <Name>
Naloxone

>  <CAS #>
465-65-6

>  <human Clearance (mL/min/kg)>
23.0

>  <Primary mechanism (metabolic, biliary or renal)>
metabolic

>  <seqId>
631.0

>  <Code (mechanism and clearance degree index)>
M1

>  < Five M1 and R1 test groups>
M1_1

>  <formamide>
0

>  <prodrug phosphates>
0

>  <VolSurf_V>
669.375

>  <VolSurf_S>
452.528

>  <VolSurf_R>
1.47919

>  <VolSurf_G>
1.3523

>  <VolSurf_IW1>
0.119295

>  <VolSurf_IW2>
0.330923

>  <VolSurf_IW3>
0.704784

>  <VolSurf_IW4>
1.00038

>  <VolSurf_ID1>
0.0553385

>  <VolSurf_ID2>
0.0963813

>  <VolSurf_ID3>
0.281195

>  <VolSurf_ID4>
0.356646

>  <VolSurf_HL1>
3.94554

>  <VolSurf_HL2>
5.69863

>  <VolSurf_A>
5.36217

>  <VolSurf_CP>
0.426992

>  <VolSurf_POL>
34.058

>  <VolSurf_MW>
327.374

>  <VolSurf_FLEX>
0.23175

>  <VolSurf_FLEX_RB>
0.0579375

>  <VolSurf_NCC>
0.0

>  <VolSurf_LOGP n-Oct>
1.147

>  <VolSurf_LOGP c-Hex>
-1.694

>  <VolSurf_PSA>
72.2

>  <VolSurf_HSA>
380.328

>  <VolSurf_PSAR>
0.159548

>  <VolSurf_PHSAR>
0.189836

>  <VolSurf_LgD5>
-1.12849

>  <VolSurf_LgD6>
-0.171402

>  <VolSurf_LgD7>
0.670375

>  <VolSurf_LgD7.5>
0.931398

>  <VolSurf_LgD8>
1.05385

>  <VolSurf_LgD9>
0.996089

>  <VolSurf_LgD10>
0.494195

>  <VolSurf_AUS7.4>
1.74907

>  <VolSurf_%FU4>
0.0501066

>  <VolSurf_%FU5>
0.498817

>  <VolSurf_%FU6>
4.77376

>  <VolSurf_%FU7>
33.3454

>  <VolSurf_%FU8>
80.5702

>  <VolSurf_%FU9>
69.6022

>  <VolSurf_%FU10>
19.3428

>  <ID>
308

>  <MOKAID>
309

>  <Clearance Route>
metabolic

>  <PC1>
1.25499

>  <PC2>
1.9202700000000001

$$$$
Nateglinide
  -OEChem-08301611272D

 23 24  0     1  0  0  0  0  0999 V2000
    1.7379    3.0001    0.0000 C   0  0  0  0  0  0  0  0  0  0  0  0
    1.7350    2.0001    0.0000 C   0  0  0  0  0  0  0  0  0  0  0  0
    2.5995    1.4976    0.0000 C   0  0  0  0  0  0  0  0  0  0  0  0
    0.8675    1.5027    0.0000 C   0  0  2  0  0  0  0  0  0  0  0  0
    0.8675    0.4975    0.0000 C   0  0  0  0  0  0  0  0  0  0  0  0
    0.0000    0.0000    0.0000 C   0  0  0  0  0  0  0  0  0  0  0  0
   -0.8675    0.4975    0.0000 C   0  0  2  0  0  0  0  0  0  0  0  0
   -0.8675    1.5027    0.0000 C   0  0  0  0  0  0  0  0  0  0  0  0
    0.0000    2.0104    0.0000 C   0  0  0  0  0  0  0  0  0  0  0  0
   -1.7328   -0.0038    0.0000 C   0  0  0  0  0  0  0  0  0  0  0  0
   -2.5995    0.4950    0.0000 O   0  0  0  0  0  0  0  0  0  0  0  0
   -1.7313   -1.0038    0.0000 N   0  0  0  0  0  0  0  0  0  0  0  0
   -2.5966   -1.5050    0.0000 C   0  0  2  0  0  0  0  0  0  0  0  0
   -2.5952   -2.5050    0.0000 C   0  0  0  0  0  0  0  0  0  0  0  0
   -1.7284   -3.0038    0.0000 C   0  0  0  0  0  0  0  0  0  0  0  0
   -0.8601   -2.4973    0.0000 C   0  0  0  0  0  0  0  0  0  0  0  0
    0.0067   -2.9960    0.0000 C   0  0  0  0  0  0  0  0  0  0  0  0
    0.0140   -3.9960    0.0000 C   0  0  0  0  0  0  0  0  0  0  0  0
   -0.8543   -4.5025    0.0000 C   0  0  0  0  0  0  0  0  0  0  0  0
   -1.7300   -4.0089    0.0000 C   0  0  0  0  0  0  0  0  0  0  0  0
   -3.4634   -1.0063    0.0000 C   0  0  0  0  0  0  0  0  0  0  0  0
   -3.4648   -0.0063    0.0000 O   0  0  0  0  0  0  0  0  0  0  0  0
   -4.3287   -1.5075    0.0000 O   0  0  0  0  0  0  0  0  0  0  0  0
  1  2  1  0  0  0  0
  2  3  1  0  0  0  0
  4  2  1  6  0  0  0
  4  9  1  0  0  0  0
  4  5  1  0  0  0  0
  5  6  1  0  0  0  0
  6  7  1  0  0  0  0
  7  8  1  0  0  0  0
  8  9  1  0  0  0  0
  7 10  1  1  0  0  0
 10 11  2  0  0  0  0
 10 12  1  0  0  0  0
 12 13  1  0  0  0  0
 13 14  1  6  0  0  0
 14 15  1  0  0  0  0
 15 20  2  0  0  0  0
 15 16  1  0  0  0  0
 16 17  2  0  0  0  0
 17 18  1  0  0  0  0
 18 19  2  0  0  0  0
 19 20  1  0  0  0  0
 13 21  1  0  0  0  0
 21 22  2  0  0  0  0
 21 23  1  0  0  0  0
M  END
>  <Name>
Nateglinide

>  <CAS #>
105816-04-4

>  <human Clearance (mL/min/kg)>
1.8

>  <Primary mechanism (metabolic, biliary or renal)>
metabolic

>  <seqId>
635.0

>  <Code (mechanism and clearance degree index)>
M1

>  < Five M1 and R1 test groups>
M1_2

>  <formamide>
0

>  <prodrug phosphates>
0

>  <VolSurf_V>
767.25

>  <VolSurf_S>
502.842

>  <VolSurf_R>
1.52583

>  <VolSurf_G>
1.38192

>  <VolSurf_IW1>
0.13352

>  <VolSurf_IW2>
0.437802

>  <VolSurf_IW3>
0.8354

>  <VolSurf_IW4>
1.22256

>  <VolSurf_ID1>
0.0468644

>  <VolSurf_ID2>
0.092829

>  <VolSurf_ID3>
0.205111

>  <VolSurf_ID4>
0.431839

>  <VolSurf_HL1>
3.66538

>  <VolSurf_HL2>
4.83178

>  <VolSurf_A>
6.43577

>  <VolSurf_CP>
0.436594

>  <VolSurf_POL>
34.903

>  <VolSurf_MW>
316.414

>  <VolSurf_FLEX>
1.91465

>  <VolSurf_FLEX_RB>
0.239331

>  <VolSurf_NCC>
1.0

>  <VolSurf_LOGP n-Oct>
3.816

>  <VolSurf_LOGP c-Hex>
0.249

>  <VolSurf_PSA>
75.22

>  <VolSurf_HSA>
427.622

>  <VolSurf_PSAR>
0.14959

>  <VolSurf_PHSAR>
0.175903

>  <VolSurf_LgD5>
2.61506

>  <VolSurf_LgD6>
1.6657

>  <VolSurf_LgD7>
0.864116

>  <VolSurf_LgD7.5>
0.636615

>  <VolSurf_LgD8>
0.529903

>  <VolSurf_LgD9>
0.476375

>  <VolSurf_LgD10>
0.470626

>  <VolSurf_AUS7.4>
0.0

>  <VolSurf_%FU4>
40.0152

>  <VolSurf_%FU5>
6.25371

>  <VolSurf_%FU6>
0.662669

>  <VolSurf_%FU7>
0.0666645

>  <VolSurf_%FU8>
0.00667045

>  <VolSurf_%FU9>
6.67082E-4

>  <VolSurf_%FU10>
6.67065E-5

>  <ID>
309

>  <MOKAID>
310

>  <Clearance Route>
metabolic

>  <PC1>
1.16973

>  <PC2>
0.882179

$$$$
Nedocromil
  -OEChem-08301611272D

 27 29  0     0  0  0  0  0  0999 V2000
    1.7426    0.9968    0.0000 C   0  0  0  0  0  0  0  0  0  0  0  0
    2.6103    1.5028    0.0000 C   0  0  0  0  0  0  0  0  0  0  0  0
    3.4830    0.9962    0.0000 C   0  0  0  0  0  0  0  0  0  0  0  0
    3.4785   -0.0157    0.0000 C   0  0  0  0  0  0  0  0  0  0  0  0
    4.3478   -0.5228    0.0000 C   0  0  0  0  0  0  0  0  0  0  0  0
    5.2271   -0.0235    0.0000 C   0  0  0  0  0  0  0  0  0  0  0  0
    5.2316    0.9884    0.0000 C   0  0  0  0  0  0  0  0  0  0  0  0
    4.3567    1.5011    0.0000 O   0  0  0  0  0  0  0  0  0  0  0  0
    6.1003    1.4837    0.0000 C   0  0  0  0  0  0  0  0  0  0  0  0
    6.1058    2.4837    0.0000 O   0  0  0  0  0  0  0  0  0  0  0  0
    6.9636    0.9789    0.0000 O   0  0  0  0  0  0  0  0  0  0  0  0
    4.3420   -1.5228    0.0000 O   0  0  0  0  0  0  0  0  0  0  0  0
    2.6095   -0.5113    0.0000 C   0  0  0  0  0  0  0  0  0  0  0  0
    1.7424   -0.0104    0.0000 C   0  0  0  0  0  0  0  0  0  0  0  0
    0.8634   -0.5044    0.0000 C   0  0  0  0  0  0  0  0  0  0  0  0
    0.0000    0.0000    0.0000 C   0  0  0  0  0  0  0  0  0  0  0  0
    0.0049    1.0056    0.0000 C   0  0  0  0  0  0  0  0  0  0  0  0
    0.8737    1.5068    0.0000 N   0  0  0  0  0  0  0  0  0  0  0  0
    0.8775    2.5068    0.0000 C   0  0  0  0  0  0  0  0  0  0  0  0
    0.0133    3.0100    0.0000 C   0  0  0  0  0  0  0  0  0  0  0  0
   -0.8598    1.5079    0.0000 C   0  0  0  0  0  0  0  0  0  0  0  0
   -1.7271    1.0101    0.0000 O   0  0  0  0  0  0  0  0  0  0  0  0
   -0.8572    2.5079    0.0000 O   0  0  0  0  0  0  0  0  0  0  0  0
    0.8550   -1.5044    0.0000 O   0  0  0  0  0  0  0  0  0  0  0  0
    2.6093    2.5028    0.0000 C   0  0  0  0  0  0  0  0  0  0  0  0
    1.7428    3.0019    0.0000 C   0  0  0  0  0  0  0  0  0  0  0  0
    1.7418    4.0019    0.0000 C   0  0  0  0  0  0  0  0  0  0  0  0
  1 14  2  0  0  0  0
  1 18  1  0  0  0  0
  1  2  1  0  0  0  0
  2  3  2  0  0  0  0
  3  8  1  0  0  0  0
  3  4  1  0  0  0  0
  4  5  1  0  0  0  0
  5  6  1  0  0  0  0
  6  7  2  0  0  0  0
  7  8  1  0  0  0  0
  7  9  1  0  0  0  0
  9 10  1  0  0  0  0
  9 11  2  0  0  0  0
  5 12  2  0  0  0  0
  4 13  2  0  0  0  0
 13 14  1  0  0  0  0
 14 15  1  0  0  0  0
 15 16  1  0  0  0  0
 16 17  2  0  0  0  0
 17 18  1  0  0  0  0
 18 19  1  0  0  0  0
 19 20  1  0  0  0  0
 17 21  1  0  0  0  0
 21 22  1  0  0  0  0
 21 23  2  0  0  0  0
 15 24  2  0  0  0  0
  2 25  1  0  0  0  0
 25 26  1  0  0  0  0
 26 27  1  0  0  0  0
M  END
>  <Name>
Nedocromil

>  <CAS #>
69049-73-6

>  <human Clearance (mL/min/kg)>
10.2

>  <Primary mechanism (metabolic, biliary or renal)>
renal

>  <seqId>
637.0

>  <Code (mechanism and clearance degree index)>
R1

>  < Five M1 and R1 test groups>
R1_4

>  <formamide>
0

>  <prodrug phosphates>
0

>  <VolSurf_V>
731.625

>  <VolSurf_S>
484.216

>  <VolSurf_R>
1.51095

>  <VolSurf_G>
1.36944

>  <VolSurf_IW1>
0.0787916

>  <VolSurf_IW2>
0.146036

>  <VolSurf_IW3>
0.304321

>  <VolSurf_IW4>
0.340447

>  <VolSurf_ID1>
0.0155996

>  <VolSurf_ID2>
0.0385201

>  <VolSurf_ID3>
0.0608967

>  <VolSurf_ID4>
0.0698534

>  <VolSurf_HL1>
5.25212

>  <VolSurf_HL2>
4.13725

>  <VolSurf_A>
0.944199

>  <VolSurf_CP>
1.27729

>  <VolSurf_POL>
32.493

>  <VolSurf_MW>
369.325

>  <VolSurf_FLEX>
0.521635

>  <VolSurf_FLEX_RB>
0.0745192

>  <VolSurf_NCC>
2.0

>  <VolSurf_LOGP n-Oct>
2.844

>  <VolSurf_LOGP c-Hex>
-2.457

>  <VolSurf_PSA>
139.72

>  <VolSurf_HSA>
344.496

>  <VolSurf_PSAR>
0.288549

>  <VolSurf_PHSAR>
0.405578

>  <VolSurf_LgD5>
-2.38309

>  <VolSurf_LgD6>
-3.03089

>  <VolSurf_LgD7>
-3.14335

>  <VolSurf_LgD7.5>
-3.15072

>  <VolSurf_LgD8>
-3.15297

>  <VolSurf_LgD9>
-3.1539

>  <VolSurf_LgD10>
-3.15399

>  <VolSurf_AUS7.4>
0.0

>  <VolSurf_%FU4>
0.0

>  <VolSurf_%FU5>
0.0

>  <VolSurf_%FU6>
0.0

>  <VolSurf_%FU7>
0.0

>  <VolSurf_%FU8>
0.0

>  <VolSurf_%FU9>
0.0

>  <VolSurf_%FU10>
0.0

>  <ID>
310

>  <MOKAID>
311

>  <Clearance Route>
renal

>  <PC1>
-2.2694799999999997

>  <PC2>
0.336461

$$$$
Nefazodone
  -OEChem-08301611272D

 33 36  0     0  0  0  0  0  0999 V2000
    5.0909    6.7301    0.0000 C   0  0  0  0  0  0  0  0  0  0  0  0
    4.0961    6.6283    0.0000 C   0  0  0  0  0  0  0  0  0  0  0  0
    3.6869    5.7159    0.0000 C   0  0  0  0  0  0  0  0  0  0  0  0
    2.7064    5.5115    0.0000 N   0  0  0  0  0  0  0  0  0  0  0  0
    2.5995    4.5126    0.0000 N   0  0  0  0  0  0  0  0  0  0  0  0
    1.7334    4.0126    0.0000 C   0  0  0  0  0  0  0  0  0  0  0  0
    1.7334    3.0126    0.0000 C   0  0  0  0  0  0  0  0  0  0  0  0
    0.8674    2.5126    0.0000 C   0  0  0  0  0  0  0  0  0  0  0  0
    0.8674    1.5126    0.0000 N   0  0  0  0  0  0  0  0  0  0  0  0
    0.0000    1.0051    0.0000 C   0  0  0  0  0  0  0  0  0  0  0  0
    0.0000    0.0000    0.0000 C   0  0  0  0  0  0  0  0  0  0  0  0
    0.8674   -0.4976    0.0000 N   0  0  0  0  0  0  0  0  0  0  0  0
    1.7348    0.0000    0.0000 C   0  0  0  0  0  0  0  0  0  0  0  0
    1.7348    1.0051    0.0000 C   0  0  0  0  0  0  0  0  0  0  0  0
    0.8674   -1.4976    0.0000 C   0  0  0  0  0  0  0  0  0  0  0  0
   -0.0046   -1.9976    0.0000 C   0  0  0  0  0  0  0  0  0  0  0  0
   -0.0047   -2.9977    0.0000 C   0  0  0  0  0  0  0  0  0  0  0  0
    0.8585   -3.5027    0.0000 C   0  0  0  0  0  0  0  0  0  0  0  0
    1.7305   -3.0027    0.0000 C   0  0  0  0  0  0  0  0  0  0  0  0
    2.5935   -3.5078    0.0000 Cl  0  0  0  0  0  0  0  0  0  0  0  0
    1.7394   -1.9976    0.0000 C   0  0  0  0  0  0  0  0  0  0  0  0
    3.5141    4.1075    0.0000 C   0  0  0  0  0  0  0  0  0  0  0  0
    3.7209    3.1291    0.0000 O   0  0  0  0  0  0  0  0  0  0  0  0
    4.1863    4.8478    0.0000 N   0  0  0  0  0  0  0  0  0  0  0  0
    5.1805    4.7404    0.0000 C   0  0  0  0  0  0  0  0  0  0  0  0
    5.7706    5.5478    0.0000 C   0  0  0  0  0  0  0  0  0  0  0  0
    6.7648    5.4404    0.0000 O   0  0  0  0  0  0  0  0  0  0  0  0
    7.3549    6.2478    0.0000 C   0  0  0  0  0  0  0  0  0  0  0  0
    6.9459    7.1660    0.0000 C   0  0  0  0  0  0  0  0  0  0  0  0
    7.5360    7.9734    0.0000 C   0  0  0  0  0  0  0  0  0  0  0  0
    8.5309    7.8719    0.0000 C   0  0  0  0  0  0  0  0  0  0  0  0
    8.9398    6.9536    0.0000 C   0  0  0  0  0  0  0  0  0  0  0  0
    8.3539    6.1369    0.0000 C   0  0  0  0  0  0  0  0  0  0  0  0
  1  2  1  0  0  0  0
  2  3  1  0  0  0  0
  3 24  1  0  0  0  0
  3  4  2  0  0  0  0
  4  5  1  0  0  0  0
  5  6  1  0  0  0  0
  6  7  1  0  0  0  0
  7  8  1  0  0  0  0
  8  9  1  0  0  0  0
  9 14  1  0  0  0  0
  9 10  1  0  0  0  0
 10 11  1  0  0  0  0
 11 12  1  0  0  0  0
 12 13  1  0  0  0  0
 13 14  1  0  0  0  0
 12 15  1  0  0  0  0
 15 21  2  0  0  0  0
 15 16  1  0  0  0  0
 16 17  2  0  0  0  0
 17 18  1  0  0  0  0
 18 19  2  0  0  0  0
 19 20  1  0  0  0  0
 19 21  1  0  0  0  0
  5 22  1  0  0  0  0
 22 23  2  0  0  0  0
 22 24  1  0  0  0  0
 24 25  1  0  0  0  0
 25 26  1  0  0  0  0
 26 27  1  0  0  0  0
 27 28  1  0  0  0  0
 28 33  2  0  0  0  0
 28 29  1  0  0  0  0
 29 30  2  0  0  0  0
 30 31  1  0  0  0  0
 31 32  2  0  0  0  0
 32 33  1  0  0  0  0
M  END
>  <Name>
Nefazodone

>  <CAS #>
83366-66-9

>  <human Clearance (mL/min/kg)>
7.5

>  <Primary mechanism (metabolic, biliary or renal)>
metabolic

>  <seqId>
638.0

>  <Code (mechanism and clearance degree index)>
M1

>  < Five M1 and R1 test groups>
M1_4

>  <formamide>
0

>  <prodrug phosphates>
0

>  <VolSurf_V>
1088.12

>  <VolSurf_S>
750.705

>  <VolSurf_R>
1.44947

>  <VolSurf_G>
1.77746

>  <VolSurf_IW1>
0.0211585

>  <VolSurf_IW2>
0.118183

>  <VolSurf_IW3>
0.223594

>  <VolSurf_IW4>
0.262749

>  <VolSurf_ID1>
0.0226201

>  <VolSurf_ID2>
0.0564266

>  <VolSurf_ID3>
0.0405858

>  <VolSurf_ID4>
0.0355775

>  <VolSurf_HL1>
0.654857

>  <VolSurf_HL2>
0.497164

>  <VolSurf_A>
3.45983

>  <VolSurf_CP>
2.90822

>  <VolSurf_POL>
51.477

>  <VolSurf_MW>
470.007

>  <VolSurf_FLEX>
3.44005

>  <VolSurf_FLEX_RB>
0.312732

>  <VolSurf_NCC>
0.0

>  <VolSurf_LOGP n-Oct>
4.431

>  <VolSurf_LOGP c-Hex>
2.194

>  <VolSurf_PSA>
53.4

>  <VolSurf_HSA>
697.305

>  <VolSurf_PSAR>
0.0711331

>  <VolSurf_PHSAR>
0.0765806

>  <VolSurf_LgD5>
2.4936

>  <VolSurf_LgD6>
3.44001

>  <VolSurf_LgD7>
4.1564

>  <VolSurf_LgD7.5>
4.32415

>  <VolSurf_LgD8>
4.39429

>  <VolSurf_LgD9>
4.42719

>  <VolSurf_LgD10>
4.43062

>  <VolSurf_AUS7.4>
1.87333

>  <VolSurf_%FU4>
0.113181

>  <VolSurf_%FU5>
1.12045

>  <VolSurf_%FU6>
10.1782

>  <VolSurf_%FU7>
53.1211

>  <VolSurf_%FU8>
91.8907

>  <VolSurf_%FU9>
99.1252

>  <VolSurf_%FU10>
99.9118

>  <ID>
311

>  <MOKAID>
312

>  <Clearance Route>
metabolic

>  <PC1>
3.92139

>  <PC2>
-3.87899

$$$$
Nefopam
  -OEChem-08301611272D

 19 21  0     1  0  0  0  0  0999 V2000
    0.3387    1.6391    0.0000 C   0  0  0  0  0  0  0  0  0  0  0  0
    0.7197    0.7145    0.0000 N   0  0  3  0  0  0  0  0  0  0  0  0
    0.0000    0.0000    0.0000 C   0  0  0  0  0  0  0  0  0  0  0  0
   -0.0051   -1.0107    0.0000 C   0  0  0  0  0  0  0  0  0  0  0  0
    0.7094   -1.7253    0.0000 O   0  0  0  0  0  0  0  0  0  0  0  0
    1.7405   -1.7355    0.0000 C   0  0  3  0  0  0  0  0  0  0  0  0
    2.1166   -2.6621    0.0000 C   0  0  0  0  0  0  0  0  0  0  0  0
    3.1127   -2.7974    0.0000 C   0  0  0  0  0  0  0  0  0  0  0  0
    3.4889   -3.7239    0.0000 C   0  0  0  0  0  0  0  0  0  0  0  0
    2.8791   -4.5166    0.0000 C   0  0  0  0  0  0  0  0  0  0  0  0
    1.8831   -4.3813    0.0000 C   0  0  0  0  0  0  0  0  0  0  0  0
    1.4968   -3.4533    0.0000 C   0  0  0  0  0  0  0  0  0  0  0  0
    2.4608   -1.0213    0.0000 C   0  0  0  0  0  0  0  0  0  0  0  0
    3.3293   -1.5170    0.0000 C   0  0  0  0  0  0  0  0  0  0  0  0
    4.1983   -1.0124    0.0000 C   0  0  0  0  0  0  0  0  0  0  0  0
    4.1932   -0.0068    0.0000 C   0  0  0  0  0  0  0  0  0  0  0  0
    3.3190    0.4943    0.0000 C   0  0  0  0  0  0  0  0  0  0  0  0
    2.4555   -0.0157    0.0000 C   0  0  0  0  0  0  0  0  0  0  0  0
    1.7303    0.7145    0.0000 C   0  0  0  0  0  0  0  0  0  0  0  0
  1  2  1  0  0  0  0
  2 19  1  0  0  0  0
  2  3  1  0  0  0  0
  3  4  1  0  0  0  0
  4  5  1  0  0  0  0
  5  6  1  0  0  0  0
  6  7  1  0  0  0  0
  7 12  2  0  0  0  0
  7  8  1  0  0  0  0
  8  9  2  0  0  0  0
  9 10  1  0  0  0  0
 10 11  2  0  0  0  0
 11 12  1  0  0  0  0
  6 13  1  0  0  0  0
 13 18  2  0  0  0  0
 13 14  1  0  0  0  0
 14 15  2  0  0  0  0
 15 16  1  0  0  0  0
 16 17  2  0  0  0  0
 17 18  1  0  0  0  0
 18 19  1  0  0  0  0
M  END
>  <Name>
Nefopam

>  <CAS #>
13669-70-0

>  <human Clearance (mL/min/kg)>
12.0

>  <Primary mechanism (metabolic, biliary or renal)>
metabolic

>  <seqId>
639.0

>  <Code (mechanism and clearance degree index)>
M1

>  < Five M1 and R1 test groups>
M1_1

>  <formamide>
0

>  <prodrug phosphates>
0

>  <VolSurf_V>
637.75

>  <VolSurf_S>
427.853

>  <VolSurf_R>
1.49058

>  <VolSurf_G>
1.30487

>  <VolSurf_IW1>
0.0247041

>  <VolSurf_IW2>
0.299891

>  <VolSurf_IW3>
0.744298

>  <VolSurf_IW4>
0.958422

>  <VolSurf_ID1>
0.0291639

>  <VolSurf_ID2>
0.0962497

>  <VolSurf_ID3>
0.187686

>  <VolSurf_ID4>
0.236735

>  <VolSurf_HL1>
0.376471

>  <VolSurf_HL2>
0.352601

>  <VolSurf_A>
5.38465

>  <VolSurf_CP>
2.82067

>  <VolSurf_POL>
32.406

>  <VolSurf_MW>
254.347

>  <VolSurf_FLEX>
0.212784

>  <VolSurf_FLEX_RB>
0.106392

>  <VolSurf_NCC>
1.0

>  <VolSurf_LOGP n-Oct>
2.914

>  <VolSurf_LOGP c-Hex>
3.472

>  <VolSurf_PSA>
23.94

>  <VolSurf_HSA>
403.913

>  <VolSurf_PSAR>
0.0559537

>  <VolSurf_PHSAR>
0.0592701

>  <VolSurf_LgD5>
0.229128

>  <VolSurf_LgD6>
1.15809

>  <VolSurf_LgD7>
2.0885

>  <VolSurf_LgD7.5>
2.46654

>  <VolSurf_LgD8>
2.71809

>  <VolSurf_LgD9>
2.88992

>  <VolSurf_LgD10>
2.91153

>  <VolSurf_AUS7.4>
1.49521

>  <VolSurf_%FU4>
0.0175307

>  <VolSurf_%FU5>
0.175031

>  <VolSurf_%FU6>
1.72317

>  <VolSurf_%FU7>
14.9181

>  <VolSurf_%FU8>
63.681

>  <VolSurf_%FU9>
94.6045

>  <VolSurf_%FU10>
99.4329

>  <ID>
312

>  <MOKAID>
313

>  <Clearance Route>
metabolic

>  <PC1>
3.61407

>  <PC2>
1.1742700000000001

$$$$
Netilmicin
  -OEChem-08301611272D

 33 35  0     1  0  0  0  0  0999 V2000
    3.4922    5.9925    0.0000 C   0  0  0  0  0  0  0  0  0  0  0  0
    2.6298    6.4988    0.0000 C   0  0  0  0  0  0  0  0  0  0  0  0
    1.7602    6.0052    0.0000 N   0  0  0  0  0  0  0  0  0  0  0  0
    1.7528    5.0052    0.0000 C   0  0  2  0  0  0  0  0  0  0  0  0
    2.6144    4.4976    0.0000 C   0  0  0  0  0  0  0  0  0  0  0  0
    2.6114    3.4976    0.0000 C   0  0  2  0  0  0  0  0  0  0  0  0
    3.4752    2.9937    0.0000 N   0  0  0  0  0  0  0  0  0  0  0  0
    1.7379    3.0001    0.0000 C   0  0  1  0  0  0  0  0  0  0  0  0
    1.7350    2.0001    0.0000 O   0  0  0  0  0  0  0  0  0  0  0  0
    0.8675    1.5027    0.0000 C   0  0  1  0  0  0  0  0  0  0  0  0
   -0.0000    2.0104    0.0000 O   0  0  0  0  0  0  0  0  0  0  0  0
   -0.8675    1.5027    0.0000 C   0  0  0  0  0  0  0  0  0  0  0  0
   -0.8675    0.4975    0.0000 C   0  0  0  0  0  0  0  0  0  0  0  0
    0.0000    0.0000    0.0000 C   0  0  0  0  0  0  0  0  0  0  0  0
    0.8675    0.4975    0.0000 C   0  0  1  0  0  0  0  0  0  0  0  0
    1.7328   -0.0038    0.0000 N   0  0  0  0  0  0  0  0  0  0  0  0
   -1.7350    2.0001    0.0000 C   0  0  0  0  0  0  0  0  0  0  0  0
   -2.5995    1.4976    0.0000 N   0  0  0  0  0  0  0  0  0  0  0  0
    0.8675    3.5027    0.0000 C   0  0  2  0  0  0  0  0  0  0  0  0
   -0.0015    3.0078    0.0000 O   0  0  0  0  0  0  0  0  0  0  0  0
    0.8793    4.5078    0.0000 C   0  0  1  0  0  0  0  0  0  0  0  0
    0.0178    5.0154    0.0000 O   0  0  0  0  0  0  0  0  0  0  0  0
    0.0266    6.0154    0.0000 C   0  0  1  0  0  0  0  0  0  0  0  0
    0.9030    6.5077    0.0000 O   0  0  0  0  0  0  0  0  0  0  0  0
    0.9030    7.5128    0.0000 C   0  0  0  0  0  0  0  0  0  0  0  0
    0.0354    8.0205    0.0000 C   0  0  2  0  0  0  0  0  0  0  0  0
   -0.6043    8.7891    0.0000 C   0  0  0  0  0  0  0  0  0  0  0  0
    0.6820    8.7834    0.0000 O   0  0  0  0  0  0  0  0  0  0  0  0
   -0.8321    7.5231    0.0000 C   0  0  2  0  0  0  0  0  0  0  0  0
   -1.6952    8.0282    0.0000 N   0  0  0  0  0  0  0  0  0  0  0  0
   -2.5641    7.5333    0.0000 C   0  0  0  0  0  0  0  0  0  0  0  0
   -0.8409    6.5231    0.0000 C   0  0  1  0  0  0  0  0  0  0  0  0
   -1.7106    6.0295    0.0000 O   0  0  0  0  0  0  0  0  0  0  0  0
  1  2  1  0  0  0  0
  2  3  1  0  0  0  0
  4  3  1  6  0  0  0
  4 21  1  0  0  0  0
  4  5  1  0  0  0  0
  5  6  1  0  0  0  0
  6  7  1  6  0  0  0
  6  8  1  0  0  0  0
  8  9  1  1  0  0  0
 10  9  1  6  0  0  0
 10 15  1  0  0  0  0
 10 11  1  0  0  0  0
 11 12  1  0  0  0  0
 12 13  2  0  0  0  0
 13 14  1  0  0  0  0
 14 15  1  0  0  0  0
 15 16  1  6  0  0  0
 12 17  1  0  0  0  0
 17 18  1  0  0  0  0
  8 19  1  0  0  0  0
 19 20  1  6  0  0  0
 19 21  1  0  0  0  0
 21 22  1  1  0  0  0
 23 22  1  6  0  0  0
 23 32  1  0  0  0  0
 23 24  1  0  0  0  0
 24 25  1  0  0  0  0
 25 26  1  0  0  0  0
 26 27  1  0  0  0  0
 26 28  1  1  0  0  0
 26 29  1  0  0  0  0
 29 30  1  1  0  0  0
 30 31  1  0  0  0  0
 29 32  1  0  0  0  0
 32 33  1  6  0  0  0
M  END
>  <Name>
Netilmicin

>  <CAS #>
56391-56-1

>  <human Clearance (mL/min/kg)>
0.55

>  <Primary mechanism (metabolic, biliary or renal)>
renal

>  <seqId>
642.0

>  <Code (mechanism and clearance degree index)>
R1

>  < Five M1 and R1 test groups>
R1_2

>  <formamide>
0

>  <prodrug phosphates>
0

>  <VolSurf_V>
957.25

>  <VolSurf_S>
621.228

>  <VolSurf_R>
1.5409

>  <VolSurf_G>
1.52098

>  <VolSurf_IW1>
0.0612765

>  <VolSurf_IW2>
0.106652

>  <VolSurf_IW3>
0.171802

>  <VolSurf_IW4>
0.165636

>  <VolSurf_ID1>
0.0333414

>  <VolSurf_ID2>
0.166603

>  <VolSurf_ID3>
0.172126

>  <VolSurf_ID4>
0.0

>  <VolSurf_HL1>
316.833

>  <VolSurf_HL2>
238.5

>  <VolSurf_A>
5.14985

>  <VolSurf_CP>
0.00278809

>  <VolSurf_POL>
54.7781

>  <VolSurf_MW>
478.603

>  <VolSurf_FLEX>
2.16606

>  <VolSurf_FLEX_RB>
0.127415

>  <VolSurf_NCC>
3.0

>  <VolSurf_LOGP n-Oct>
-3.836

>  <VolSurf_LOGP c-Hex>
-2.326

>  <VolSurf_PSA>
240.56

>  <VolSurf_HSA>
380.668

>  <VolSurf_PSAR>
0.387233

>  <VolSurf_PHSAR>
0.631942

>  <VolSurf_LgD5>
-9.0

>  <VolSurf_LgD6>
-9.0

>  <VolSurf_LgD7>
-8.82979

>  <VolSurf_LgD7.5>
-7.1935

>  <VolSurf_LgD8>
-5.85061

>  <VolSurf_LgD9>
-4.29605

>  <VolSurf_LgD10>
-3.8951

>  <VolSurf_AUS7.4>
0.0

>  <VolSurf_%FU4>
5.53428E-17

>  <VolSurf_%FU5>
4.15855E-12

>  <VolSurf_%FU6>
1.14716E-7

>  <VolSurf_%FU7>
9.13029E-4

>  <VolSurf_%FU8>
0.959127

>  <VolSurf_%FU9>
34.6422

>  <VolSurf_%FU10>
87.2691

>  <ID>
313

>  <MOKAID>
314

>  <Clearance Route>
renal

>  <PC1>
-7.01612

>  <PC2>
-1.00135

$$$$
Nevirapine
  -OEChem-08301611272D

 20 23  0     0  0  0  0  0  0999 V2000
    0.5102    1.6636    0.0000 C   0  0  0  0  0  0  0  0  0  0  0  0
    0.7377    0.6898    0.0000 C   0  0  0  0  0  0  0  0  0  0  0  0
    0.0000    0.0000    0.0000 C   0  0  0  0  0  0  0  0  0  0  0  0
    0.2313   -0.9837    0.0000 C   0  0  0  0  0  0  0  0  0  0  0  0
    1.2003   -1.2778    0.0000 N   0  0  0  0  0  0  0  0  0  0  0  0
    1.9312   -0.5840    0.0000 C   0  0  0  0  0  0  0  0  0  0  0  0
    2.8446   -1.0154    0.0000 N   0  0  0  0  0  0  0  0  0  0  0  0
    2.8490   -2.0154    0.0000 C   0  0  0  0  0  0  0  0  0  0  0  0
    2.3528   -2.8858    0.0000 C   0  0  0  0  0  0  0  0  0  0  0  0
    3.3528   -2.8814    0.0000 C   0  0  0  0  0  0  0  0  0  0  0  0
    3.7517   -0.5772    0.0000 C   0  0  0  0  0  0  0  0  0  0  0  0
    4.4941   -1.2472    0.0000 N   0  0  0  0  0  0  0  0  0  0  0  0
    5.4510   -0.9405    0.0000 C   0  0  0  0  0  0  0  0  0  0  0  0
    5.6612    0.0428    0.0000 C   0  0  0  0  0  0  0  0  0  0  0  0
    4.9146    0.7195    0.0000 C   0  0  0  0  0  0  0  0  0  0  0  0
    3.9620    0.4062    0.0000 C   0  0  0  0  0  0  0  0  0  0  0  0
    3.3333    1.1944    0.0000 C   0  0  0  0  0  0  0  0  0  0  0  0
    3.7665    2.0957    0.0000 O   0  0  0  0  0  0  0  0  0  0  0  0
    2.3292    1.1930    0.0000 N   0  0  0  0  0  0  0  0  0  0  0  0
    1.6999    0.3997    0.0000 C   0  0  0  0  0  0  0  0  0  0  0  0
  1  2  1  0  0  0  0
  2 20  2  0  0  0  0
  2  3  1  0  0  0  0
  3  4  2  0  0  0  0
  4  5  1  0  0  0  0
  5  6  2  0  0  0  0
  6 20  1  0  0  0  0
  6  7  1  0  0  0  0
  7  8  1  0  0  0  0
  8 10  1  0  0  0  0
  8  9  1  0  0  0  0
  9 10  1  0  0  0  0
  7 11  1  0  0  0  0
 11 16  2  0  0  0  0
 11 12  1  0  0  0  0
 12 13  2  0  0  0  0
 13 14  1  0  0  0  0
 14 15  2  0  0  0  0
 15 16  1  0  0  0  0
 16 17  1  0  0  0  0
 17 18  2  0  0  0  0
 17 19  1  0  0  0  0
 19 20  1  0  0  0  0
M  END
>  <Name>
Nevirapine

>  <CAS #>
129618-40-2

>  <human Clearance (mL/min/kg)>
0.3

>  <Primary mechanism (metabolic, biliary or renal)>
metabolic

>  <seqId>
643.0

>  <Code (mechanism and clearance degree index)>
M1

>  < Five M1 and R1 test groups>
M1_3

>  <formamide>
0

>  <prodrug phosphates>
0

>  <VolSurf_V>
583.75

>  <VolSurf_S>
398.229

>  <VolSurf_R>
1.46586

>  <VolSurf_G>
1.28011

>  <VolSurf_IW1>
0.0629188

>  <VolSurf_IW2>
0.196054

>  <VolSurf_IW3>
0.647339

>  <VolSurf_IW4>
1.28218

>  <VolSurf_ID1>
0.0219315

>  <VolSurf_ID2>
0.0557637

>  <VolSurf_ID3>
0.0584226

>  <VolSurf_ID4>
0.0412984

>  <VolSurf_HL1>
1.02982

>  <VolSurf_HL2>
0.731788

>  <VolSurf_A>
2.70468

>  <VolSurf_CP>
3.38613

>  <VolSurf_POL>
29.052

>  <VolSurf_MW>
266.298

>  <VolSurf_FLEX>
0.197309

>  <VolSurf_FLEX_RB>
0.0986543

>  <VolSurf_NCC>
0.0

>  <VolSurf_LOGP n-Oct>
1.269

>  <VolSurf_LOGP c-Hex>
0.123

>  <VolSurf_PSA>
57.37

>  <VolSurf_HSA>
340.859

>  <VolSurf_PSAR>
0.144063

>  <VolSurf_PHSAR>
0.16831

>  <VolSurf_LgD5>
-1.0402

>  <VolSurf_LgD6>
-0.0702611

>  <VolSurf_LgD7>
0.778984

>  <VolSurf_LgD7.5>
1.04828

>  <VolSurf_LgD8>
1.18508

>  <VolSurf_LgD9>
1.24291

>  <VolSurf_LgD10>
1.1191

>  <VolSurf_AUS7.4>
1.74221

>  <VolSurf_%FU4>
0.0356185

>  <VolSurf_%FU5>
0.460225

>  <VolSurf_%FU6>
4.54858

>  <VolSurf_%FU7>
32.3368

>  <VolSurf_%FU8>
82.4237

>  <VolSurf_%FU9>
94.167

>  <VolSurf_%FU10>
70.8023

>  <ID>
314

>  <MOKAID>
315

>  <Clearance Route>
metabolic

>  <PC1>
2.01383

>  <PC2>
1.1762700000000001

$$$$
Nicardipine
  -OEChem-08301611272D

 35 37  0     1  0  0  0  0  0999 V2000
   -2.5966   -1.5050    0.0000 C   0  0  0  0  0  0  0  0  0  0  0  0
   -1.7313   -1.0038    0.0000 O   0  0  0  0  0  0  0  0  0  0  0  0
   -1.7328   -0.0038    0.0000 C   0  0  0  0  0  0  0  0  0  0  0  0
   -2.5995    0.4950    0.0000 O   0  0  0  0  0  0  0  0  0  0  0  0
   -0.8675    0.4975    0.0000 C   0  0  0  0  0  0  0  0  0  0  0  0
   -0.8675    1.5027    0.0000 C   0  0  0  0  0  0  0  0  0  0  0  0
   -1.7350    2.0001    0.0000 C   0  0  0  0  0  0  0  0  0  0  0  0
    0.0000    2.0104    0.0000 N   0  0  0  0  0  0  0  0  0  0  0  0
    0.8675    1.5027    0.0000 C   0  0  0  0  0  0  0  0  0  0  0  0
    0.8675    0.4975    0.0000 C   0  0  0  0  0  0  0  0  0  0  0  0
    0.0000    0.0000    0.0000 C   0  0  3  0  0  0  0  0  0  0  0  0
   -0.0000   -1.0000    0.0000 C   0  0  0  0  0  0  0  0  0  0  0  0
   -0.8720   -1.5000    0.0000 C   0  0  0  0  0  0  0  0  0  0  0  0
   -0.8721   -2.5001    0.0000 C   0  0  0  0  0  0  0  0  0  0  0  0
   -0.0089   -3.0051    0.0000 C   0  0  0  0  0  0  0  0  0  0  0  0
    0.8631   -2.5051    0.0000 C   0  0  0  0  0  0  0  0  0  0  0  0
    0.8720   -1.5000    0.0000 C   0  0  0  0  0  0  0  0  0  0  0  0
    1.7261   -3.0102    0.0000 N   0  0  0  0  0  0  0  0  0  0  0  0
    2.5951   -2.5153    0.0000 O   0  0  0  0  0  0  0  0  0  0  0  0
    1.7202   -4.0102    0.0000 O   0  0  0  0  0  0  0  0  0  0  0  0
    1.7328   -0.0038    0.0000 C   0  0  0  0  0  0  0  0  0  0  0  0
    1.7313   -1.0038    0.0000 O   0  0  0  0  0  0  0  0  0  0  0  0
    2.5995    0.4950    0.0000 O   0  0  0  0  0  0  0  0  0  0  0  0
    3.4648   -0.0063    0.0000 C   0  0  0  0  0  0  0  0  0  0  0  0
    4.3316    0.4925    0.0000 C   0  0  0  0  0  0  0  0  0  0  0  0
    5.1969   -0.0088    0.0000 N   0  0  3  0  0  0  0  0  0  0  0  0
    5.1954   -1.0088    0.0000 C   0  0  0  0  0  0  0  0  0  0  0  0
    6.0636    0.4900    0.0000 C   0  0  0  0  0  0  0  0  0  0  0  0
    6.9289   -0.0113    0.0000 C   0  0  0  0  0  0  0  0  0  0  0  0
    7.7987    0.4926    0.0000 C   0  0  0  0  0  0  0  0  0  0  0  0
    8.6641   -0.0086    0.0000 C   0  0  0  0  0  0  0  0  0  0  0  0
    8.6685   -1.0086    0.0000 C   0  0  0  0  0  0  0  0  0  0  0  0
    7.7987   -1.5125    0.0000 C   0  0  0  0  0  0  0  0  0  0  0  0
    6.9245   -1.0164    0.0000 C   0  0  0  0  0  0  0  0  0  0  0  0
    1.7350    2.0001    0.0000 C   0  0  0  0  0  0  0  0  0  0  0  0
  1  2  1  0  0  0  0
  2  3  1  0  0  0  0
  3  4  2  0  0  0  0
  3  5  1  0  0  0  0
  5 11  1  0  0  0  0
  5  6  2  0  0  0  0
  6  7  1  0  0  0  0
  6  8  1  0  0  0  0
  8  9  1  0  0  0  0
  9 10  2  0  0  0  0
 10 11  1  0  0  0  0
 11 12  1  0  0  0  0
 12 17  2  0  0  0  0
 12 13  1  0  0  0  0
 13 14  2  0  0  0  0
 14 15  1  0  0  0  0
 15 16  2  0  0  0  0
 16 17  1  0  0  0  0
 16 18  1  0  0  0  0
 18 19  2  0  0  0  0
 18 20  2  0  0  0  0
 10 21  1  0  0  0  0
 21 22  2  0  0  0  0
 21 23  1  0  0  0  0
 23 24  1  0  0  0  0
 24 25  1  0  0  0  0
 25 26  1  0  0  0  0
 26 27  1  0  0  0  0
 26 28  1  0  0  0  0
 28 29  1  0  0  0  0
 29 34  2  0  0  0  0
 29 30  1  0  0  0  0
 30 31  2  0  0  0  0
 31 32  1  0  0  0  0
 32 33  2  0  0  0  0
 33 34  1  0  0  0  0
  9 35  1  0  0  0  0
M  END
>  <Name>
Nicardipine

>  <CAS #>
55985-32-5

>  <human Clearance (mL/min/kg)>
11.0

>  <Primary mechanism (metabolic, biliary or renal)>
metabolic

>  <seqId>
645.0

>  <Code (mechanism and clearance degree index)>
M1

>  < Five M1 and R1 test groups>
M1_3

>  <formamide>
0

>  <prodrug phosphates>
0

>  <VolSurf_V>
1063.25

>  <VolSurf_S>
706.601

>  <VolSurf_R>
1.50474

>  <VolSurf_G>
1.66111

>  <VolSurf_IW1>
0.0496806

>  <VolSurf_IW2>
0.164925

>  <VolSurf_IW3>
0.345991

>  <VolSurf_IW4>
0.445219

>  <VolSurf_ID1>
0.0555881

>  <VolSurf_ID2>
0.0783367

>  <VolSurf_ID3>
0.103444

>  <VolSurf_ID4>
0.144066

>  <VolSurf_HL1>
1.84314

>  <VolSurf_HL2>
1.65366

>  <VolSurf_A>
5.18616

>  <VolSurf_CP>
0.739926

>  <VolSurf_POL>
50.751

>  <VolSurf_MW>
479.525

>  <VolSurf_FLEX>
3.18625

>  <VolSurf_FLEX_RB>
0.212417

>  <VolSurf_NCC>
0.0

>  <VolSurf_LOGP n-Oct>
3.895

>  <VolSurf_LOGP c-Hex>
3.829

>  <VolSurf_PSA>
105.02

>  <VolSurf_HSA>
601.581

>  <VolSurf_PSAR>
0.148627

>  <VolSurf_PHSAR>
0.174573

>  <VolSurf_LgD5>
1.73269

>  <VolSurf_LgD6>
2.69048

>  <VolSurf_LgD7>
3.49574

>  <VolSurf_LgD7.5>
3.72565

>  <VolSurf_LgD8>
3.83399

>  <VolSurf_LgD9>
3.8885

>  <VolSurf_LgD10>
3.89435

>  <VolSurf_AUS7.4>
1.80054

>  <VolSurf_%FU4>
0.0646472

>  <VolSurf_%FU5>
0.656828

>  <VolSurf_%FU6>
6.21454

>  <VolSurf_%FU7>
39.8598

>  <VolSurf_%FU8>
86.8903

>  <VolSurf_%FU9>
98.5137

>  <VolSurf_%FU10>
99.8493

>  <ID>
315

>  <MOKAID>
316

>  <Clearance Route>
metabolic

>  <PC1>
3.17542

>  <PC2>
-2.81877

$$$$
Nicotine
  -OEChem-08301611272D

 12 13  0     1  0  0  0  0  0999 V2000
    1.0952   -1.6732    0.0000 C   0  0  0  0  0  0  0  0  0  0  0  0
    1.8373   -1.0030    0.0000 N   0  0  3  0  0  0  0  0  0  0  0  0
    2.8166   -1.2075    0.0000 C   0  0  0  0  0  0  0  0  0  0  0  0
    3.3190   -0.3428    0.0000 C   0  0  0  0  0  0  0  0  0  0  0  0
    2.6488    0.4015    0.0000 C   0  0  0  0  0  0  0  0  0  0  0  0
    1.7328   -0.0038    0.0000 C   0  0  1  0  0  0  0  0  0  0  0  0
    0.8675    0.4975    0.0000 C   0  0  0  0  0  0  0  0  0  0  0  0
    0.0000    0.0000    0.0000 C   0  0  0  0  0  0  0  0  0  0  0  0
   -0.8675    0.4975    0.0000 C   0  0  0  0  0  0  0  0  0  0  0  0
   -0.8675    1.5027    0.0000 C   0  0  0  0  0  0  0  0  0  0  0  0
    0.0000    2.0104    0.0000 N   0  0  0  0  0  0  0  0  0  0  0  0
    0.8675    1.5027    0.0000 C   0  0  0  0  0  0  0  0  0  0  0  0
  1  2  1  0  0  0  0
  2  6  1  0  0  0  0
  2  3  1  0  0  0  0
  3  4  1  0  0  0  0
  4  5  1  0  0  0  0
  5  6  1  0  0  0  0
  6  7  1  6  0  0  0
  7 12  2  0  0  0  0
  7  8  1  0  0  0  0
  8  9  2  0  0  0  0
  9 10  1  0  0  0  0
 10 11  2  0  0  0  0
 11 12  1  0  0  0  0
M  END
>  <Name>
Nicotine

>  <CAS #>
54-11-5

>  <human Clearance (mL/min/kg)>
18.0

>  <Primary mechanism (metabolic, biliary or renal)>
metabolic

>  <seqId>
647.0

>  <Code (mechanism and clearance degree index)>
M1

>  < Five M1 and R1 test groups>
M1_2

>  <formamide>
0

>  <prodrug phosphates>
0

>  <VolSurf_V>
445.125

>  <VolSurf_S>
315.846

>  <VolSurf_R>
1.40931

>  <VolSurf_G>
1.18578

>  <VolSurf_IW1>
0.130483

>  <VolSurf_IW2>
0.544133

>  <VolSurf_IW3>
1.24954

>  <VolSurf_IW4>
2.11864

>  <VolSurf_ID1>
0.0211503

>  <VolSurf_ID2>
0.125525

>  <VolSurf_ID3>
0.236612

>  <VolSurf_ID4>
0.342997

>  <VolSurf_HL1>
1.04464

>  <VolSurf_HL2>
0.838983

>  <VolSurf_A>
3.23175

>  <VolSurf_CP>
1.36549

>  <VolSurf_POL>
21.4

>  <VolSurf_MW>
163.239

>  <VolSurf_FLEX>
0.233709

>  <VolSurf_FLEX_RB>
0.116854

>  <VolSurf_NCC>
1.0

>  <VolSurf_LOGP n-Oct>
1.13

>  <VolSurf_LOGP c-Hex>
0.279

>  <VolSurf_PSA>
24.04

>  <VolSurf_HSA>
291.806

>  <VolSurf_PSAR>
0.076113

>  <VolSurf_PHSAR>
0.0823834

>  <VolSurf_LgD5>
-2.25225

>  <VolSurf_LgD6>
-1.73944

>  <VolSurf_LgD7>
-0.845469

>  <VolSurf_LgD7.5>
-0.363842

>  <VolSurf_LgD8>
0.104472

>  <VolSurf_LgD9>
0.837043

>  <VolSurf_LgD10>
1.09005

>  <VolSurf_AUS7.4>
0.510546

>  <VolSurf_%FU4>
9.19923E-4

>  <VolSurf_%FU5>
0.0102439

>  <VolSurf_%FU6>
0.10352

>  <VolSurf_%FU7>
1.02682

>  <VolSurf_%FU8>
9.40049

>  <VolSurf_%FU9>
50.9226

>  <VolSurf_%FU10>
91.2096

>  <ID>
316

>  <MOKAID>
317

>  <Clearance Route>
uncertain

>  <PC1>
1.20862

>  <PC2>
3.2595099999999997

$$$$
Nifedipine
  -OEChem-08301611272D

 25 26  0     0  0  0  0  0  0999 V2000
   -4.1138   -0.3822    0.0000 C   0  0  0  0  0  0  0  0  0  0  0  0
   -3.2485    0.1190    0.0000 O   0  0  0  0  0  0  0  0  0  0  0  0
   -2.3818   -0.3797    0.0000 C   0  0  0  0  0  0  0  0  0  0  0  0
   -2.3803   -1.3797    0.0000 O   0  0  0  0  0  0  0  0  0  0  0  0
   -0.8675    0.4975    0.0000 C   0  0  0  0  0  0  0  0  0  0  0  0
   -0.8675    1.5027    0.0000 C   0  0  0  0  0  0  0  0  0  0  0  0
   -1.7350    2.0001    0.0000 C   0  0  0  0  0  0  0  0  0  0  0  0
    0.0000    2.0104    0.0000 N   0  0  0  0  0  0  0  0  0  0  0  0
    0.8675    1.5027    0.0000 C   0  0  0  0  0  0  0  0  0  0  0  0
    0.8675    0.4975    0.0000 C   0  0  0  0  0  0  0  0  0  0  0  0
    0.0000    0.0000    0.0000 C   0  0  0  0  0  0  0  0  0  0  0  0
   -0.0000   -1.7500    0.0000 C   0  0  0  0  0  0  0  0  0  0  0  0
    0.8653   -2.2513    0.0000 C   0  0  0  0  0  0  0  0  0  0  0  0
    0.8697   -3.2513    0.0000 C   0  0  0  0  0  0  0  0  0  0  0  0
   -0.0001   -3.7552    0.0000 C   0  0  0  0  0  0  0  0  0  0  0  0
   -0.8743   -3.2590    0.0000 C   0  0  0  0  0  0  0  0  0  0  0  0
   -0.8698   -2.2539    0.0000 C   0  0  0  0  0  0  0  0  0  0  0  0
   -1.7351   -1.7526    0.0000 N   0  0  0  0  0  0  0  0  0  0  0  0
   -2.6018   -2.2513    0.0000 O   0  0  0  0  0  0  0  0  0  0  0  0
   -1.7336   -0.7526    0.0000 O   0  0  0  0  0  0  0  0  0  0  0  0
    1.7328   -0.0038    0.0000 C   0  0  0  0  0  0  0  0  0  0  0  0
    1.7313   -1.0038    0.0000 O   0  0  0  0  0  0  0  0  0  0  0  0
    2.5995    0.4950    0.0000 O   0  0  0  0  0  0  0  0  0  0  0  0
    3.4648   -0.0063    0.0000 C   0  0  0  0  0  0  0  0  0  0  0  0
    1.7350    2.0001    0.0000 C   0  0  0  0  0  0  0  0  0  0  0  0
  1  2  1  0  0  0  0
  2  3  1  0  0  0  0
  3  4  2  0  0  0  0
  3  5  1  0  0  0  0
  5 11  1  0  0  0  0
  5  6  2  0  0  0  0
  6  7  1  0  0  0  0
  6  8  1  0  0  0  0
  8  9  1  0  0  0  0
  9 10  2  0  0  0  0
 10 11  1  0  0  0  0
 11 12  1  0  0  0  0
 12 17  2  0  0  0  0
 12 13  1  0  0  0  0
 13 14  2  0  0  0  0
 14 15  1  0  0  0  0
 15 16  2  0  0  0  0
 16 17  1  0  0  0  0
 17 18  1  0  0  0  0
 18 19  2  0  0  0  0
 18 20  2  0  0  0  0
 10 21  1  0  0  0  0
 21 22  2  0  0  0  0
 21 23  1  0  0  0  0
 23 24  1  0  0  0  0
  9 25  1  0  0  0  0
M  END
>  <Name>
Nifedipine

>  <CAS #>
21829-25-4

>  <human Clearance (mL/min/kg)>
7.3

>  <Primary mechanism (metabolic, biliary or renal)>
metabolic

>  <seqId>
648.0

>  <Code (mechanism and clearance degree index)>
M1

>  < Five M1 and R1 test groups>
M1_2

>  <formamide>
0

>  <prodrug phosphates>
0

>  <VolSurf_V>
729.25

>  <VolSurf_S>
496.137

>  <VolSurf_R>
1.46986

>  <VolSurf_G>
1.42495

>  <VolSurf_IW1>
0.051203

>  <VolSurf_IW2>
0.138235

>  <VolSurf_IW3>
0.402612

>  <VolSurf_IW4>
0.724828

>  <VolSurf_ID1>
0.0315499

>  <VolSurf_ID2>
0.0643058

>  <VolSurf_ID3>
0.0945725

>  <VolSurf_ID4>
0.11029

>  <VolSurf_HL1>
2.60317

>  <VolSurf_HL2>
1.66355

>  <VolSurf_A>
3.65413

>  <VolSurf_CP>
0.850736

>  <VolSurf_POL>
34.235

>  <VolSurf_MW>
346.335

>  <VolSurf_FLEX>
1.39631

>  <VolSurf_FLEX_RB>
0.139631

>  <VolSurf_NCC>
0.0

>  <VolSurf_LOGP n-Oct>
2.449

>  <VolSurf_LOGP c-Hex>
2.617

>  <VolSurf_PSA>
101.78

>  <VolSurf_HSA>
394.357

>  <VolSurf_PSAR>
0.205145

>  <VolSurf_PHSAR>
0.258091

>  <VolSurf_LgD5>
2.44755

>  <VolSurf_LgD6>
2.44885

>  <VolSurf_LgD7>
2.44899

>  <VolSurf_LgD7.5>
2.449

>  <VolSurf_LgD8>
2.449

>  <VolSurf_LgD9>
2.449

>  <VolSurf_LgD10>
2.449

>  <VolSurf_AUS7.4>
2.0

>  <VolSurf_%FU4>
96.7692

>  <VolSurf_%FU5>
99.6672

>  <VolSurf_%FU6>
99.9666

>  <VolSurf_%FU7>
99.9967

>  <VolSurf_%FU8>
99.9997

>  <VolSurf_%FU9>
100.0

>  <VolSurf_%FU10>
100.0

>  <ID>
317

>  <MOKAID>
318

>  <Clearance Route>
metabolic

>  <PC1>
3.64004

>  <PC2>
-0.202321

$$$$
Nisoldipine
  -OEChem-08301611272D

 28 29  0     1  0  0  0  0  0999 V2000
   -4.1138   -0.3822    0.0000 C   0  0  0  0  0  0  0  0  0  0  0  0
   -3.2485    0.1190    0.0000 O   0  0  0  0  0  0  0  0  0  0  0  0
   -2.3818   -0.3797    0.0000 C   0  0  0  0  0  0  0  0  0  0  0  0
   -2.3803   -1.3797    0.0000 O   0  0  0  0  0  0  0  0  0  0  0  0
   -0.8675    0.4975    0.0000 C   0  0  0  0  0  0  0  0  0  0  0  0
   -0.8675    1.5027    0.0000 C   0  0  0  0  0  0  0  0  0  0  0  0
   -1.7350    2.0001    0.0000 C   0  0  0  0  0  0  0  0  0  0  0  0
    0.0000    2.0104    0.0000 N   0  0  0  0  0  0  0  0  0  0  0  0
    0.8675    1.5027    0.0000 C   0  0  0  0  0  0  0  0  0  0  0  0
    0.8675    0.4975    0.0000 C   0  0  0  0  0  0  0  0  0  0  0  0
    0.0000    0.0000    0.0000 C   0  0  3  0  0  0  0  0  0  0  0  0
   -0.0000   -1.7500    0.0000 C   0  0  0  0  0  0  0  0  0  0  0  0
    0.8653   -2.2513    0.0000 C   0  0  0  0  0  0  0  0  0  0  0  0
    0.8697   -3.2513    0.0000 C   0  0  0  0  0  0  0  0  0  0  0  0
   -0.0001   -3.7552    0.0000 C   0  0  0  0  0  0  0  0  0  0  0  0
   -0.8743   -3.2590    0.0000 C   0  0  0  0  0  0  0  0  0  0  0  0
   -0.8698   -2.2539    0.0000 C   0  0  0  0  0  0  0  0  0  0  0  0
   -1.7351   -1.7526    0.0000 N   0  0  0  0  0  0  0  0  0  0  0  0
   -2.6018   -2.2513    0.0000 O   0  0  0  0  0  0  0  0  0  0  0  0
   -1.7336   -0.7526    0.0000 O   0  0  0  0  0  0  0  0  0  0  0  0
    1.7328   -0.0038    0.0000 C   0  0  0  0  0  0  0  0  0  0  0  0
    1.7313   -1.0038    0.0000 O   0  0  0  0  0  0  0  0  0  0  0  0
    2.5995    0.4950    0.0000 O   0  0  0  0  0  0  0  0  0  0  0  0
    3.4648   -0.0063    0.0000 C   0  0  0  0  0  0  0  0  0  0  0  0
    4.3316    0.4925    0.0000 C   0  0  0  0  0  0  0  0  0  0  0  0
    4.3330    1.4925    0.0000 C   0  0  0  0  0  0  0  0  0  0  0  0
    5.1969   -0.0088    0.0000 C   0  0  0  0  0  0  0  0  0  0  0  0
    1.7350    2.0001    0.0000 C   0  0  0  0  0  0  0  0  0  0  0  0
  1  2  1  0  0  0  0
  2  3  1  0  0  0  0
  3  4  2  0  0  0  0
  3  5  1  0  0  0  0
  5 11  1  0  0  0  0
  5  6  2  0  0  0  0
  6  7  1  0  0  0  0
  6  8  1  0  0  0  0
  8  9  1  0  0  0  0
  9 10  2  0  0  0  0
 10 11  1  0  0  0  0
 11 12  1  0  0  0  0
 12 17  2  0  0  0  0
 12 13  1  0  0  0  0
 13 14  2  0  0  0  0
 14 15  1  0  0  0  0
 15 16  2  0  0  0  0
 16 17  1  0  0  0  0
 17 18  1  0  0  0  0
 18 19  2  0  0  0  0
 18 20  2  0  0  0  0
 10 21  1  0  0  0  0
 21 22  2  0  0  0  0
 21 23  1  0  0  0  0
 23 24  1  0  0  0  0
 24 25  1  0  0  0  0
 25 26  1  0  0  0  0
 25 27  1  0  0  0  0
  9 28  1  0  0  0  0
M  END
>  <Name>
Nisoldipine

>  <CAS #>
63675-72-9

>  <human Clearance (mL/min/kg)>
15.0

>  <Primary mechanism (metabolic, biliary or renal)>
metabolic

>  <seqId>
650.0

>  <Code (mechanism and clearance degree index)>
M1

>  < Five M1 and R1 test groups>
M1_2

>  <formamide>
0

>  <prodrug phosphates>
0

>  <VolSurf_V>
852.0

>  <VolSurf_S>
573.757

>  <VolSurf_R>
1.48495

>  <VolSurf_G>
1.51679

>  <VolSurf_IW1>
0.0478135

>  <VolSurf_IW2>
0.140928

>  <VolSurf_IW3>
0.347484

>  <VolSurf_IW4>
0.575337

>  <VolSurf_ID1>
0.034761

>  <VolSurf_ID2>
0.0612439

>  <VolSurf_ID3>
0.105954

>  <VolSurf_ID4>
0.122088

>  <VolSurf_HL1>
2.71667

>  <VolSurf_HL2>
2.04348

>  <VolSurf_A>
3.83863

>  <VolSurf_CP>
0.704455

>  <VolSurf_POL>
39.74

>  <VolSurf_MW>
388.414

>  <VolSurf_FLEX>
1.77861

>  <VolSurf_FLEX_RB>
0.136816

>  <VolSurf_NCC>
0.0

>  <VolSurf_LOGP n-Oct>
3.748

>  <VolSurf_LOGP c-Hex>
3.296

>  <VolSurf_PSA>
101.78

>  <VolSurf_HSA>
471.977

>  <VolSurf_PSAR>
0.177392

>  <VolSurf_PHSAR>
0.215646

>  <VolSurf_LgD5>
3.74693

>  <VolSurf_LgD6>
3.74789

>  <VolSurf_LgD7>
3.74799

>  <VolSurf_LgD7.5>
3.748

>  <VolSurf_LgD8>
3.748

>  <VolSurf_LgD9>
3.748

>  <VolSurf_LgD10>
3.748

>  <VolSurf_AUS7.4>
2.0

>  <VolSurf_%FU4>
97.6001

>  <VolSurf_%FU5>
99.7547

>  <VolSurf_%FU6>
99.9754

>  <VolSurf_%FU7>
99.9975

>  <VolSurf_%FU8>
99.9998

>  <VolSurf_%FU9>
100.0

>  <VolSurf_%FU10>
100.0

>  <ID>
318

>  <MOKAID>
319

>  <Clearance Route>
metabolic

>  <PC1>
4.48808

>  <PC2>
-1.28407

$$$$
Nitrendipine
  -OEChem-08301611272D

 26 27  0     1  0  0  0  0  0999 V2000
   -4.3316    0.4925    0.0000 C   0  0  0  0  0  0  0  0  0  0  0  0
   -3.4648   -0.0063    0.0000 C   0  0  0  0  0  0  0  0  0  0  0  0
   -2.5995    0.4950    0.0000 O   0  0  0  0  0  0  0  0  0  0  0  0
   -1.7328   -0.0038    0.0000 C   0  0  0  0  0  0  0  0  0  0  0  0
   -1.7313   -1.0038    0.0000 O   0  0  0  0  0  0  0  0  0  0  0  0
   -0.8675    0.4975    0.0000 C   0  0  0  0  0  0  0  0  0  0  0  0
   -0.8675    1.5027    0.0000 C   0  0  0  0  0  0  0  0  0  0  0  0
   -1.7350    2.0001    0.0000 C   0  0  0  0  0  0  0  0  0  0  0  0
    0.0000    2.0104    0.0000 N   0  0  0  0  0  0  0  0  0  0  0  0
    0.8675    1.5027    0.0000 C   0  0  0  0  0  0  0  0  0  0  0  0
    0.8675    0.4975    0.0000 C   0  0  0  0  0  0  0  0  0  0  0  0
    0.0000    0.0000    0.0000 C   0  0  3  0  0  0  0  0  0  0  0  0
   -0.0000   -1.0000    0.0000 C   0  0  0  0  0  0  0  0  0  0  0  0
   -0.8720   -1.5000    0.0000 C   0  0  0  0  0  0  0  0  0  0  0  0
   -0.8721   -2.5001    0.0000 C   0  0  0  0  0  0  0  0  0  0  0  0
   -0.0089   -3.0051    0.0000 C   0  0  0  0  0  0  0  0  0  0  0  0
    0.8631   -2.5051    0.0000 C   0  0  0  0  0  0  0  0  0  0  0  0
    0.8720   -1.5000    0.0000 C   0  0  0  0  0  0  0  0  0  0  0  0
    1.7261   -3.0102    0.0000 N   0  0  0  0  0  0  0  0  0  0  0  0
    2.5951   -2.5153    0.0000 O   0  0  0  0  0  0  0  0  0  0  0  0
    1.7202   -4.0102    0.0000 O   0  0  0  0  0  0  0  0  0  0  0  0
    1.7328   -0.0038    0.0000 C   0  0  0  0  0  0  0  0  0  0  0  0
    1.7313   -1.0038    0.0000 O   0  0  0  0  0  0  0  0  0  0  0  0
    2.5995    0.4950    0.0000 O   0  0  0  0  0  0  0  0  0  0  0  0
    3.4648   -0.0063    0.0000 C   0  0  0  0  0  0  0  0  0  0  0  0
    1.7350    2.0001    0.0000 C   0  0  0  0  0  0  0  0  0  0  0  0
  1  2  1  0  0  0  0
  2  3  1  0  0  0  0
  3  4  1  0  0  0  0
  4  5  2  0  0  0  0
  4  6  1  0  0  0  0
  6 12  1  0  0  0  0
  6  7  2  0  0  0  0
  7  8  1  0  0  0  0
  7  9  1  0  0  0  0
  9 10  1  0  0  0  0
 10 11  2  0  0  0  0
 11 12  1  0  0  0  0
 12 13  1  0  0  0  0
 13 18  2  0  0  0  0
 13 14  1  0  0  0  0
 14 15  2  0  0  0  0
 15 16  1  0  0  0  0
 16 17  2  0  0  0  0
 17 18  1  0  0  0  0
 17 19  1  0  0  0  0
 19 20  2  0  0  0  0
 19 21  2  0  0  0  0
 11 22  1  0  0  0  0
 22 23  2  0  0  0  0
 22 24  1  0  0  0  0
 24 25  1  0  0  0  0
 10 26  1  0  0  0  0
M  END
>  <Name>
Nitrendipine

>  <CAS #>
39562-70-4

>  <human Clearance (mL/min/kg)>
25.0

>  <Primary mechanism (metabolic, biliary or renal)>
metabolic

>  <seqId>
652.0

>  <Code (mechanism and clearance degree index)>
M1

>  < Five M1 and R1 test groups>
M1_5

>  <formamide>
0

>  <prodrug phosphates>
0

>  <VolSurf_V>
784.25

>  <VolSurf_S>
542.216

>  <VolSurf_R>
1.44638

>  <VolSurf_G>
1.51383

>  <VolSurf_IW1>
0.066876

>  <VolSurf_IW2>
0.165809

>  <VolSurf_IW3>
0.492707

>  <VolSurf_IW4>
0.818954

>  <VolSurf_ID1>
0.0257187

>  <VolSurf_ID2>
0.0638773

>  <VolSurf_ID3>
0.100412

>  <VolSurf_ID4>
0.12707

>  <VolSurf_HL1>
3.05288

>  <VolSurf_HL2>
2.28788

>  <VolSurf_A>
4.00219

>  <VolSurf_CP>
0.783823

>  <VolSurf_POL>
36.07

>  <VolSurf_MW>
360.361

>  <VolSurf_FLEX>
1.29988

>  <VolSurf_FLEX_RB>
0.118171

>  <VolSurf_NCC>
0.0

>  <VolSurf_LOGP n-Oct>
3.012

>  <VolSurf_LOGP c-Hex>
2.808

>  <VolSurf_PSA>
101.78

>  <VolSurf_HSA>
440.436

>  <VolSurf_PSAR>
0.187711

>  <VolSurf_PHSAR>
0.231089

>  <VolSurf_LgD5>
3.01093

>  <VolSurf_LgD6>
3.01189

>  <VolSurf_LgD7>
3.01199

>  <VolSurf_LgD7.5>
3.012

>  <VolSurf_LgD8>
3.012

>  <VolSurf_LgD9>
3.012

>  <VolSurf_LgD10>
3.012

>  <VolSurf_AUS7.4>
2.0

>  <VolSurf_%FU4>
97.6001

>  <VolSurf_%FU5>
99.7547

>  <VolSurf_%FU6>
99.9754

>  <VolSurf_%FU7>
99.9975

>  <VolSurf_%FU8>
99.9998

>  <VolSurf_%FU9>
100.0

>  <VolSurf_%FU10>
100.0

>  <ID>
319

>  <MOKAID>
320

>  <Clearance Route>
metabolic

>  <PC1>
4.10374

>  <PC2>
-0.407668

$$$$
Nitroglycerin
  -OEChem-08301611272D

 15 14  0     0  0  0  0  0  0999 V2000
    0.0000    0.0000    0.0000 C   0  0  0  0  0  0  0  0  0  0  0  0
    1.0000    0.0000    0.0000 C   0  0  0  0  0  0  0  0  0  0  0  0
    1.5000    0.8660    0.0000 O   0  0  0  0  0  0  0  0  0  0  0  0
    2.5000    0.8660    0.0000 N   0  3  0  0  0  0  0  0  0  0  0  0
    3.0000   -0.0000    0.0000 O   0  0  0  0  0  0  0  0  0  0  0  0
    3.0000    1.7321    0.0000 O   0  5  0  0  0  0  0  0  0  0  0  0
   -0.5000   -0.8660    0.0000 C   0  0  0  0  0  0  0  0  0  0  0  0
   -0.0000   -1.7321    0.0000 O   0  0  0  0  0  0  0  0  0  0  0  0
   -0.5000   -2.5981    0.0000 N   0  3  0  0  0  0  0  0  0  0  0  0
   -1.5000   -2.5981    0.0000 O   0  0  0  0  0  0  0  0  0  0  0  0
   -0.0000   -3.4641    0.0000 O   0  5  0  0  0  0  0  0  0  0  0  0
   -0.5000    0.8660    0.0000 O   0  0  0  0  0  0  0  0  0  0  0  0
   -1.5000    0.8660    0.0000 N   0  3  0  0  0  0  0  0  0  0  0  0
   -2.0000    0.0000    0.0000 O   0  0  0  0  0  0  0  0  0  0  0  0
   -2.0000    1.7321    0.0000 O   0  5  0  0  0  0  0  0  0  0  0  0
  1  2  1  0  0  0  0
  2  3  1  0  0  0  0
  3  4  1  0  0  0  0
  4  5  2  0  0  0  0
  4  6  1  0  0  0  0
  1  7  1  0  0  0  0
  7  8  1  0  0  0  0
  8  9  1  0  0  0  0
  9 10  2  0  0  0  0
  9 11  1  0  0  0  0
  1 12  1  0  0  0  0
 12 13  1  0  0  0  0
 13 14  2  0  0  0  0
 13 15  1  0  0  0  0
M  CHG  6   4   1   6  -1   9   1  11  -1  13   1  15  -1
M  END
>  <Name>
Nitroglycerin

>  <CAS #>
55-63-0

>  <human Clearance (mL/min/kg)>
194.3

>  <Primary mechanism (metabolic, biliary or renal)>
metabolic

>  <seqId>
654.0

>  <Code (mechanism and clearance degree index)>
M1

>  < Five M1 and R1 test groups>
M1_5

>  <formamide>
0

>  <prodrug phosphates>
0

>  <VolSurf_V>
461.375

>  <VolSurf_S>
343.216

>  <VolSurf_R>
1.34427

>  <VolSurf_G>
1.2959

>  <VolSurf_IW1>
0.0100765

>  <VolSurf_IW2>
0.00809409

>  <VolSurf_IW3>
0.272033

>  <VolSurf_IW4>
0.0

>  <VolSurf_ID1>
0.0103531

>  <VolSurf_ID2>
0.0152758

>  <VolSurf_ID3>
0.0355995

>  <VolSurf_ID4>
0.156043

>  <VolSurf_HL1>
0.460674

>  <VolSurf_HL2>
0.0

>  <VolSurf_A>
1.29521

>  <VolSurf_CP>
22.5139

>  <VolSurf_POL>
14.121

>  <VolSurf_MW>
227.087

>  <VolSurf_FLEX>
2.23071

>  <VolSurf_FLEX_RB>
0.278839

>  <VolSurf_NCC>
0.0

>  <VolSurf_LOGP n-Oct>
1.676

>  <VolSurf_LOGP c-Hex>
-2.353

>  <VolSurf_PSA>
139.14

>  <VolSurf_HSA>
204.076

>  <VolSurf_PSAR>
0.4054

>  <VolSurf_PHSAR>
0.681804

>  <VolSurf_LgD5>
1.676

>  <VolSurf_LgD6>
1.676

>  <VolSurf_LgD7>
1.676

>  <VolSurf_LgD7.5>
1.676

>  <VolSurf_LgD8>
1.676

>  <VolSurf_LgD9>
1.676

>  <VolSurf_LgD10>
1.676

>  <VolSurf_AUS7.4>
2.0

>  <VolSurf_%FU4>
62.3398

>  <VolSurf_%FU5>
94.8846

>  <VolSurf_%FU6>
99.4701

>  <VolSurf_%FU7>
99.9468

>  <VolSurf_%FU8>
99.9947

>  <VolSurf_%FU9>
99.9995

>  <VolSurf_%FU10>
99.9999

>  <ID>
320

>  <MOKAID>
321

>  <Clearance Route>
metabolic

>  <PC1>
2.8123

>  <PC2>
0.488875

$$$$
Nomifensine
  -OEChem-08301611272D

 18 20  0     1  0  0  0  0  0999 V2000
    4.3535    1.4968    0.0000 C   0  0  0  0  0  0  0  0  0  0  0  0
    3.4848    1.0014    0.0000 N   0  0  3  0  0  0  0  0  0  0  0  0
    3.4805   -0.0073    0.0000 C   0  0  0  0  0  0  0  0  0  0  0  0
    2.6039   -0.5053    0.0000 C   0  0  3  0  0  0  0  0  0  0  0  0
    2.5983   -1.5053    0.0000 C   0  0  0  0  0  0  0  0  0  0  0  0
    3.4675   -2.0102    0.0000 C   0  0  0  0  0  0  0  0  0  0  0  0
    3.4620   -3.0102    0.0000 C   0  0  0  0  0  0  0  0  0  0  0  0
    2.5961   -3.5104    0.0000 C   0  0  0  0  0  0  0  0  0  0  0  0
    1.7269   -3.0056    0.0000 C   0  0  0  0  0  0  0  0  0  0  0  0
    1.7236   -2.0004    0.0000 C   0  0  0  0  0  0  0  0  0  0  0  0
    1.7371   -0.0000    0.0000 C   0  0  0  0  0  0  0  0  0  0  0  0
    0.8707   -0.4993    0.0000 C   0  0  0  0  0  0  0  0  0  0  0  0
    0.0000    0.0000    0.0000 C   0  0  0  0  0  0  0  0  0  0  0  0
   -0.0000    1.0089    0.0000 C   0  0  0  0  0  0  0  0  0  0  0  0
    0.8707    1.5185    0.0000 C   0  0  0  0  0  0  0  0  0  0  0  0
    0.8707    2.5185    0.0000 N   0  0  0  0  0  0  0  0  0  0  0  0
    1.7414    1.0089    0.0000 C   0  0  0  0  0  0  0  0  0  0  0  0
    2.6125    1.5125    0.0000 C   0  0  0  0  0  0  0  0  0  0  0  0
  1  2  1  0  0  0  0
  2 18  1  0  0  0  0
  2  3  1  0  0  0  0
  3  4  1  0  0  0  0
  4  5  1  0  0  0  0
  5 10  2  0  0  0  0
  5  6  1  0  0  0  0
  6  7  2  0  0  0  0
  7  8  1  0  0  0  0
  8  9  2  0  0  0  0
  9 10  1  0  0  0  0
  4 11  1  0  0  0  0
 11 17  2  0  0  0  0
 11 12  1  0  0  0  0
 12 13  2  0  0  0  0
 13 14  1  0  0  0  0
 14 15  2  0  0  0  0
 15 16  1  0  0  0  0
 15 17  1  0  0  0  0
 17 18  1  0  0  0  0
M  END
>  <Name>
Nomifensine

>  <CAS #>
24526-64-5

>  <human Clearance (mL/min/kg)>
22.0

>  <Primary mechanism (metabolic, biliary or renal)>
metabolic

>  <seqId>
658.0

>  <Code (mechanism and clearance degree index)>
M1

>  < Five M1 and R1 test groups>
M1_2

>  <formamide>
0

>  <prodrug phosphates>
0

>  <VolSurf_V>
601.75

>  <VolSurf_S>
414.128

>  <VolSurf_R>
1.45305

>  <VolSurf_G>
1.31692

>  <VolSurf_IW1>
0.0445296

>  <VolSurf_IW2>
0.33412

>  <VolSurf_IW3>
0.854612

>  <VolSurf_IW4>
1.41778

>  <VolSurf_ID1>
0.0383369

>  <VolSurf_ID2>
0.0794313

>  <VolSurf_ID3>
0.126915

>  <VolSurf_ID4>
0.202291

>  <VolSurf_HL1>
0.218673

>  <VolSurf_HL2>
0.103139

>  <VolSurf_A>
4.75111

>  <VolSurf_CP>
5.69247

>  <VolSurf_POL>
31.411

>  <VolSurf_MW>
239.335

>  <VolSurf_FLEX>
0.343596

>  <VolSurf_FLEX_RB>
0.114532

>  <VolSurf_NCC>
1.0

>  <VolSurf_LOGP n-Oct>
2.333

>  <VolSurf_LOGP c-Hex>
1.824

>  <VolSurf_PSA>
37.43

>  <VolSurf_HSA>
376.698

>  <VolSurf_PSAR>
0.0903826

>  <VolSurf_PHSAR>
0.0993633

>  <VolSurf_LgD5>
-1.02095

>  <VolSurf_LgD6>
-0.421979

>  <VolSurf_LgD7>
0.497832

>  <VolSurf_LgD7.5>
0.978347

>  <VolSurf_LgD8>
1.43697

>  <VolSurf_LgD9>
2.10552

>  <VolSurf_LgD10>
2.30408

>  <VolSurf_AUS7.4>
0.625101

>  <VolSurf_%FU4>
0.00101671

>  <VolSurf_%FU5>
0.0139206

>  <VolSurf_%FU6>
0.144356

>  <VolSurf_%FU7>
1.43045

>  <VolSurf_%FU8>
12.6773

>  <VolSurf_%FU9>
59.2141

>  <VolSurf_%FU10>
93.556

>  <ID>
321

>  <MOKAID>
322

>  <Clearance Route>
metabolic

>  <PC1>
2.09028

>  <PC2>
1.26759

$$$$
Nortriptyline
  -OEChem-08301611272D

 20 22  0     0  0  0  0  0  0999 V2000
    4.5942   -5.0078    0.0000 C   0  0  0  0  0  0  0  0  0  0  0  0
    4.5898   -4.0078    0.0000 N   0  0  0  0  0  0  0  0  0  0  0  0
    3.7216   -3.5116    0.0000 C   0  0  0  0  0  0  0  0  0  0  0  0
    3.7172   -2.5116    0.0000 C   0  0  0  0  0  0  0  0  0  0  0  0
    2.8490   -2.0154    0.0000 C   0  0  0  0  0  0  0  0  0  0  0  0
    2.8446   -1.0154    0.0000 C   0  0  0  0  0  0  0  0  0  0  0  0
    1.9312   -0.5840    0.0000 C   0  0  0  0  0  0  0  0  0  0  0  0
    1.2003   -1.2778    0.0000 C   0  0  0  0  0  0  0  0  0  0  0  0
    0.2313   -0.9837    0.0000 C   0  0  0  0  0  0  0  0  0  0  0  0
    0.0000    0.0000    0.0000 C   0  0  0  0  0  0  0  0  0  0  0  0
    0.7377    0.6898    0.0000 C   0  0  0  0  0  0  0  0  0  0  0  0
    1.6999    0.3997    0.0000 C   0  0  0  0  0  0  0  0  0  0  0  0
    2.3292    1.1930    0.0000 C   0  0  0  0  0  0  0  0  0  0  0  0
    3.3333    1.1944    0.0000 C   0  0  0  0  0  0  0  0  0  0  0  0
    3.9620    0.4062    0.0000 C   0  0  0  0  0  0  0  0  0  0  0  0
    4.9146    0.7195    0.0000 C   0  0  0  0  0  0  0  0  0  0  0  0
    5.6612    0.0428    0.0000 C   0  0  0  0  0  0  0  0  0  0  0  0
    5.4510   -0.9405    0.0000 C   0  0  0  0  0  0  0  0  0  0  0  0
    4.4941   -1.2472    0.0000 C   0  0  0  0  0  0  0  0  0  0  0  0
    3.7517   -0.5772    0.0000 C   0  0  0  0  0  0  0  0  0  0  0  0
  1  2  1  0  0  0  0
  2  3  1  0  0  0  0
  3  4  1  0  0  0  0
  4  5  1  0  0  0  0
  5  6  2  0  0  0  0
  6 20  1  0  0  0  0
  6  7  1  0  0  0  0
  7 12  2  0  0  0  0
  7  8  1  0  0  0  0
  8  9  2  0  0  0  0
  9 10  1  0  0  0  0
 10 11  2  0  0  0  0
 11 12  1  0  0  0  0
 12 13  1  0  0  0  0
 13 14  1  0  0  0  0
 14 15  1  0  0  0  0
 15 20  2  0  0  0  0
 15 16  1  0  0  0  0
 16 17  2  0  0  0  0
 17 18  1  0  0  0  0
 18 19  2  0  0  0  0
 19 20  1  0  0  0  0
M  END
>  <Name>
Nortriptyline

>  <CAS #>
72-69-5

>  <human Clearance (mL/min/kg)>
10.0

>  <Primary mechanism (metabolic, biliary or renal)>
metabolic

>  <seqId>
660.0

>  <Code (mechanism and clearance degree index)>
M1

>  < Five M1 and R1 test groups>
M1_4

>  <formamide>
0

>  <prodrug phosphates>
0

>  <VolSurf_V>
683.5

>  <VolSurf_S>
454.202

>  <VolSurf_R>
1.50484

>  <VolSurf_G>
1.33171

>  <VolSurf_IW1>
0.028752

>  <VolSurf_IW2>
0.321746

>  <VolSurf_IW3>
0.940963

>  <VolSurf_IW4>
1.24005

>  <VolSurf_ID1>
0.0365438

>  <VolSurf_ID2>
0.0728274

>  <VolSurf_ID3>
0.0989596

>  <VolSurf_ID4>
0.0876238

>  <VolSurf_HL1>
0.174138

>  <VolSurf_HL2>
0.106825

>  <VolSurf_A>
6.47519

>  <VolSurf_CP>
7.48082

>  <VolSurf_POL>
36.247

>  <VolSurf_MW>
264.385

>  <VolSurf_FLEX>
0.658641

>  <VolSurf_FLEX_RB>
0.16466

>  <VolSurf_NCC>
1.0

>  <VolSurf_LOGP n-Oct>
4.128

>  <VolSurf_LOGP c-Hex>
3.603

>  <VolSurf_PSA>
23.58

>  <VolSurf_HSA>
430.622

>  <VolSurf_PSAR>
0.0519153

>  <VolSurf_PHSAR>
0.0547581

>  <VolSurf_LgD5>
0.490879

>  <VolSurf_LgD6>
0.786724

>  <VolSurf_LgD7>
1.55961

>  <VolSurf_LgD7.5>
2.03413

>  <VolSurf_LgD8>
2.51923

>  <VolSurf_LgD9>
3.42976

>  <VolSurf_LgD10>
3.98204

>  <VolSurf_AUS7.4>
0.122127

>  <VolSurf_%FU4>
2.50272E-4

>  <VolSurf_%FU5>
0.00250266

>  <VolSurf_%FU6>
0.025021

>  <VolSurf_%FU7>
0.249647

>  <VolSurf_%FU8>
2.44162

>  <VolSurf_%FU9>
20.0174

>  <VolSurf_%FU10>
71.4508

>  <ID>
322

>  <MOKAID>
323

>  <Clearance Route>
metabolic

>  <PC1>
2.99382

>  <PC2>
0.772891

$$$$
Ofloxacin
  -OEChem-08301611272D

 26 29  0     1  0  0  0  0  0999 V2000
   -0.8675    1.5063    0.0000 C   0  0  0  0  0  0  0  0  0  0  0  0
    0.0000    1.0089    0.0000 C   0  0  3  0  0  0  0  0  0  0  0  0
    0.0000    0.0000    0.0000 C   0  0  0  0  0  0  0  0  0  0  0  0
    0.8707   -0.4993    0.0000 O   0  0  0  0  0  0  0  0  0  0  0  0
    1.7371    0.0000    0.0000 C   0  0  0  0  0  0  0  0  0  0  0  0
    2.6039   -0.5053    0.0000 C   0  0  0  0  0  0  0  0  0  0  0  0
    2.5983   -1.5053    0.0000 N   0  0  0  0  0  0  0  0  0  0  0  0
    1.7280   -2.0079    0.0000 C   0  0  0  0  0  0  0  0  0  0  0  0
    1.7224   -3.0130    0.0000 C   0  0  0  0  0  0  0  0  0  0  0  0
    2.5870   -3.5155    0.0000 N   0  0  0  0  0  0  0  0  0  0  0  0
    2.5814   -4.5154    0.0000 C   0  0  0  0  0  0  0  0  0  0  0  0
    3.4572   -3.0227    0.0000 C   0  0  0  0  0  0  0  0  0  0  0  0
    3.4628   -2.0177    0.0000 C   0  0  0  0  0  0  0  0  0  0  0  0
    3.4805   -0.0074    0.0000 C   0  0  0  0  0  0  0  0  0  0  0  0
    4.3437   -0.5123    0.0000 F   0  0  0  0  0  0  0  0  0  0  0  0
    3.4848    1.0014    0.0000 C   0  0  0  0  0  0  0  0  0  0  0  0
    2.6132    1.4980    0.0000 C   0  0  0  0  0  0  0  0  0  0  0  0
    2.6262    2.5061    0.0000 C   0  0  0  0  0  0  0  0  0  0  0  0
    3.4979    2.9961    0.0000 O   0  0  0  0  0  0  0  0  0  0  0  0
    1.7576    3.0193    0.0000 C   0  0  0  0  0  0  0  0  0  0  0  0
    0.8761    2.5245    0.0000 C   0  0  0  0  0  0  0  0  0  0  0  0
    0.8707    1.5185    0.0000 N   0  0  0  0  0  0  0  0  0  0  0  0
    1.7393    1.0052    0.0000 C   0  0  0  0  0  0  0  0  0  0  0  0
    1.7687    4.0192    0.0000 C   0  0  0  0  0  0  0  0  0  0  0  0
    2.6402    4.5096    0.0000 O   0  0  0  0  0  0  0  0  0  0  0  0
    0.9083    4.5288    0.0000 O   0  0  0  0  0  0  0  0  0  0  0  0
  1  2  1  0  0  0  0
  2 22  1  0  0  0  0
  2  3  1  0  0  0  0
  3  4  1  0  0  0  0
  4  5  1  0  0  0  0
  5 23  2  0  0  0  0
  5  6  1  0  0  0  0
  6  7  1  0  0  0  0
  7 13  1  0  0  0  0
  7  8  1  0  0  0  0
  8  9  1  0  0  0  0
  9 10  1  0  0  0  0
 10 11  1  0  0  0  0
 10 12  1  0  0  0  0
 12 13  1  0  0  0  0
  6 14  2  0  0  0  0
 14 15  1  0  0  0  0
 14 16  1  0  0  0  0
 16 17  2  0  0  0  0
 17 23  1  0  0  0  0
 17 18  1  0  0  0  0
 18 19  2  0  0  0  0
 18 20  1  0  0  0  0
 20 21  2  0  0  0  0
 21 22  1  0  0  0  0
 22 23  1  0  0  0  0
 20 24  1  0  0  0  0
 24 25  2  0  0  0  0
 24 26  1  0  0  0  0
M  END
>  <Name>
Ofloxacin

>  <CAS #>
82419-36-1

>  <human Clearance (mL/min/kg)>
2.5

>  <Primary mechanism (metabolic, biliary or renal)>
renal

>  <seqId>
662.0

>  <Code (mechanism and clearance degree index)>
R1

>  < Five M1 and R1 test groups>
R1_5

>  <formamide>
0

>  <prodrug phosphates>
0

>  <VolSurf_V>
740.125

>  <VolSurf_S>
493.827

>  <VolSurf_R>
1.49875

>  <VolSurf_G>
1.39422

>  <VolSurf_IW1>
0.140345

>  <VolSurf_IW2>
0.33073

>  <VolSurf_IW3>
0.84957

>  <VolSurf_IW4>
1.67219

>  <VolSurf_ID1>
0.0298011

>  <VolSurf_ID2>
0.0201275

>  <VolSurf_ID3>
0.0507593

>  <VolSurf_ID4>
0.127599

>  <VolSurf_HL1>
4.49145

>  <VolSurf_HL2>
2.96273

>  <VolSurf_A>
4.47388

>  <VolSurf_CP>
2.21592

>  <VolSurf_POL>
35.725

>  <VolSurf_MW>
361.367

>  <VolSurf_FLEX>
0.250632

>  <VolSurf_FLEX_RB>
0.062658

>  <VolSurf_NCC>
2.0

>  <VolSurf_LOGP n-Oct>
1.851

>  <VolSurf_LOGP c-Hex>
-1.839

>  <VolSurf_PSA>
97.45

>  <VolSurf_HSA>
396.377

>  <VolSurf_PSAR>
0.197336

>  <VolSurf_PHSAR>
0.245852

>  <VolSurf_LgD5>
-1.08364

>  <VolSurf_LgD6>
-0.621826

>  <VolSurf_LgD7>
-0.393542

>  <VolSurf_LgD7.5>
-0.416269

>  <VolSurf_LgD8>
-0.530057

>  <VolSurf_LgD9>
-0.933334

>  <VolSurf_LgD10>
-1.11814

>  <VolSurf_AUS7.4>
0.0

>  <VolSurf_%FU4>
0.0

>  <VolSurf_%FU5>
0.0

>  <VolSurf_%FU6>
0.0

>  <VolSurf_%FU7>
0.0

>  <VolSurf_%FU8>
0.0

>  <VolSurf_%FU9>
0.0

>  <VolSurf_%FU10>
0.0

>  <ID>
323

>  <MOKAID>
324

>  <Clearance Route>
uncertain

>  <PC1>
-0.475627

>  <PC2>
0.800609

$$$$
Omeprazole
  -OEChem-08301611272D

 24 26  0     1  0  0  0  0  0999 V2000
   -0.8704    1.4975    0.0000 C   0  0  0  0  0  0  0  0  0  0  0  0
   -0.8675    0.4975    0.0000 O   0  0  0  0  0  0  0  0  0  0  0  0
    0.0000    0.0000    0.0000 C   0  0  0  0  0  0  0  0  0  0  0  0
   -0.0000   -1.0058    0.0000 C   0  0  0  0  0  0  0  0  0  0  0  0
    0.8680   -1.5037    0.0000 C   0  0  0  0  0  0  0  0  0  0  0  0
    1.7360   -1.0071    0.0000 C   0  0  0  0  0  0  0  0  0  0  0  0
    2.6938   -1.3184    0.0000 N   0  0  0  0  0  0  0  0  0  0  0  0
    3.2858   -0.5036    0.0000 C   0  0  0  0  0  0  0  0  0  0  0  0
    2.6938    0.3110    0.0000 N   0  0  0  0  0  0  0  0  0  0  0  0
    1.7360   -0.0000    0.0000 C   0  0  0  0  0  0  0  0  0  0  0  0
    0.8680    0.5079    0.0000 C   0  0  0  0  0  0  0  0  0  0  0  0
    4.2858   -0.5035    0.0000 S   0  0  3  0  0  0  0  0  0  0  0  0
    4.7859   -1.3695    0.0000 O   0  0  0  0  0  0  0  0  0  0  0  0
    4.7857    0.3625    0.0000 C   0  0  0  0  0  0  0  0  0  0  0  0
    5.7857    0.3626    0.0000 C   0  0  0  0  0  0  0  0  0  0  0  0
    6.2858   -0.5094    0.0000 N   0  0  0  0  0  0  0  0  0  0  0  0
    7.2909   -0.5004    0.0000 C   0  0  0  0  0  0  0  0  0  0  0  0
    7.7909    0.3716    0.0000 C   0  0  0  0  0  0  0  0  0  0  0  0
    8.7909    0.3761    0.0000 C   0  0  0  0  0  0  0  0  0  0  0  0
    7.2858    1.2347    0.0000 C   0  0  0  0  0  0  0  0  0  0  0  0
    7.7831    2.1022    0.0000 O   0  0  0  0  0  0  0  0  0  0  0  0
    7.2805    2.9668    0.0000 C   0  0  0  0  0  0  0  0  0  0  0  0
    6.2857    1.2346    0.0000 C   0  0  0  0  0  0  0  0  0  0  0  0
    5.7844    2.0999    0.0000 C   0  0  0  0  0  0  0  0  0  0  0  0
  1  2  1  0  0  0  0
  2  3  1  0  0  0  0
  3 11  2  0  0  0  0
  3  4  1  0  0  0  0
  4  5  2  0  0  0  0
  5  6  1  0  0  0  0
  6 10  2  0  0  0  0
  6  7  1  0  0  0  0
  7  8  1  0  0  0  0
  8  9  2  0  0  0  0
  9 10  1  0  0  0  0
 10 11  1  0  0  0  0
  8 12  1  0  0  0  0
 12 13  2  0  0  0  0
 12 14  1  0  0  0  0
 14 15  1  0  0  0  0
 15 23  2  0  0  0  0
 15 16  1  0  0  0  0
 16 17  2  0  0  0  0
 17 18  1  0  0  0  0
 18 19  1  0  0  0  0
 18 20  2  0  0  0  0
 20 21  1  0  0  0  0
 21 22  1  0  0  0  0
 20 23  1  0  0  0  0
 23 24  1  0  0  0  0
M  END
>  <Name>
Omeprazole

>  <CAS #>
73590-58-6

>  <human Clearance (mL/min/kg)>
8.4

>  <Primary mechanism (metabolic, biliary or renal)>
metabolic

>  <seqId>
667.0

>  <Code (mechanism and clearance degree index)>
M1

>  < Five M1 and R1 test groups>
M1_2

>  <formamide>
0

>  <prodrug phosphates>
0

>  <VolSurf_V>
749.875

>  <VolSurf_S>
522.867

>  <VolSurf_R>
1.43416

>  <VolSurf_G>
1.49924

>  <VolSurf_IW1>
0.0516485

>  <VolSurf_IW2>
0.123923

>  <VolSurf_IW3>
0.263437

>  <VolSurf_IW4>
0.478406

>  <VolSurf_ID1>
0.0267321

>  <VolSurf_ID2>
0.0896362

>  <VolSurf_ID3>
0.125876

>  <VolSurf_ID4>
0.164015

>  <VolSurf_HL1>
2.71217

>  <VolSurf_HL2>
1.90517

>  <VolSurf_A>
2.91973

>  <VolSurf_CP>
0.791475

>  <VolSurf_POL>
36.943

>  <VolSurf_MW>
345.416

>  <VolSurf_FLEX>
2.06947

>  <VolSurf_FLEX_RB>
0.229941

>  <VolSurf_NCC>
0.0

>  <VolSurf_LOGP n-Oct>
2.241

>  <VolSurf_LOGP c-Hex>
1.37

>  <VolSurf_PSA>
97.68

>  <VolSurf_HSA>
425.187

>  <VolSurf_PSAR>
0.186816

>  <VolSurf_PHSAR>
0.229734

>  <VolSurf_LgD5>
2.13047

>  <VolSurf_LgD6>
2.22822

>  <VolSurf_LgD7>
2.23318

>  <VolSurf_LgD7.5>
2.22005

>  <VolSurf_LgD8>
2.17889

>  <VolSurf_LgD9>
1.83718

>  <VolSurf_LgD10>
1.02951

>  <VolSurf_AUS7.4>
1.98625

>  <VolSurf_%FU4>
22.0044

>  <VolSurf_%FU5>
77.5235

>  <VolSurf_%FU6>
97.1

>  <VolSurf_%FU7>
98.2145

>  <VolSurf_%FU8>
86.6694

>  <VolSurf_%FU9>
39.443

>  <VolSurf_%FU10>
6.11517

>  <ID>
324

>  <MOKAID>
325

>  <Clearance Route>
metabolic

>  <PC1>
2.34553

>  <PC2>
-0.578984

$$$$
Ondansetron
  -OEChem-08301611272D

 22 25  0     1  0  0  0  0  0999 V2000
    1.6052   -3.4892    0.0000 C   0  0  0  0  0  0  0  0  0  0  0  0
    0.6053   -3.4771    0.0000 C   0  0  0  0  0  0  0  0  0  0  0  0
    0.0060   -4.2797    0.0000 N   0  0  0  0  0  0  0  0  0  0  0  0
   -0.9430   -3.9600    0.0000 C   0  0  0  0  0  0  0  0  0  0  0  0
   -0.9296   -2.9601    0.0000 C   0  0  0  0  0  0  0  0  0  0  0  0
    0.0239   -2.6580    0.0000 N   0  0  0  0  0  0  0  0  0  0  0  0
    0.3417   -1.7098    0.0000 C   0  0  0  0  0  0  0  0  0  0  0  0
   -0.3205   -0.9605    0.0000 C   0  0  3  0  0  0  0  0  0  0  0  0
    0.0000    0.0000    0.0000 C   0  0  0  0  0  0  0  0  0  0  0  0
   -0.6715    0.7607    0.0000 C   0  0  0  0  0  0  0  0  0  0  0  0
   -1.6599    0.5538    0.0000 C   0  0  0  0  0  0  0  0  0  0  0  0
   -1.9803   -0.4068    0.0000 C   0  0  0  0  0  0  0  0  0  0  0  0
   -1.3124   -1.1604    0.0000 C   0  0  0  0  0  0  0  0  0  0  0  0
   -1.6302   -2.1086    0.0000 O   0  0  0  0  0  0  0  0  0  0  0  0
   -2.9803   -0.4033    0.0000 C   0  0  0  0  0  0  0  0  0  0  0  0
   -3.6518   -1.1492    0.0000 C   0  0  0  0  0  0  0  0  0  0  0  0
   -4.6369   -0.9329    0.0000 C   0  0  0  0  0  0  0  0  0  0  0  0
   -4.9434    0.0258    0.0000 C   0  0  0  0  0  0  0  0  0  0  0  0
   -4.2648    0.7681    0.0000 C   0  0  0  0  0  0  0  0  0  0  0  0
   -3.2868    0.5554    0.0000 C   0  0  0  0  0  0  0  0  0  0  0  0
   -2.4768    1.1478    0.0000 N   0  0  0  0  0  0  0  0  0  0  0  0
   -2.4782    2.1478    0.0000 C   0  0  0  0  0  0  0  0  0  0  0  0
  1  2  1  0  0  0  0
  2  6  1  0  0  0  0
  2  3  2  0  0  0  0
  3  4  1  0  0  0  0
  4  5  2  0  0  0  0
  5  6  1  0  0  0  0
  6  7  1  0  0  0  0
  7  8  1  0  0  0  0
  8 13  1  0  0  0  0
  8  9  1  0  0  0  0
  9 10  1  0  0  0  0
 10 11  1  0  0  0  0
 11 21  1  0  0  0  0
 11 12  2  0  0  0  0
 12 13  1  0  0  0  0
 13 14  2  0  0  0  0
 12 15  1  0  0  0  0
 15 20  2  0  0  0  0
 15 16  1  0  0  0  0
 16 17  2  0  0  0  0
 17 18  1  0  0  0  0
 18 19  2  0  0  0  0
 19 20  1  0  0  0  0
 20 21  1  0  0  0  0
 21 22  1  0  0  0  0
M  END
>  <Name>
Ondansetron

>  <CAS #>
99614-02-5

>  <human Clearance (mL/min/kg)>
5.8

>  <Primary mechanism (metabolic, biliary or renal)>
metabolic

>  <seqId>
669.0

>  <Code (mechanism and clearance degree index)>
M1

>  < Five M1 and R1 test groups>
M1_1

>  <formamide>
0

>  <prodrug phosphates>
0

>  <VolSurf_V>
688.625

>  <VolSurf_S>
462.276

>  <VolSurf_R>
1.48964

>  <VolSurf_G>
1.3572

>  <VolSurf_IW1>
0.0539364

>  <VolSurf_IW2>
0.279302

>  <VolSurf_IW3>
0.802649

>  <VolSurf_IW4>
1.22515

>  <VolSurf_ID1>
0.0179721

>  <VolSurf_ID2>
0.0160327

>  <VolSurf_ID3>
0.0229411

>  <VolSurf_ID4>
0.0564733

>  <VolSurf_HL1>
0.450331

>  <VolSurf_HL2>
0.326683

>  <VolSurf_A>
4.28135

>  <VolSurf_CP>
19.5304

>  <VolSurf_POL>
32.888

>  <VolSurf_MW>
294.371

>  <VolSurf_FLEX>
0.86015

>  <VolSurf_FLEX_RB>
0.215038

>  <VolSurf_NCC>
1.0

>  <VolSurf_LOGP n-Oct>
-1.67

>  <VolSurf_LOGP c-Hex>
2.638

>  <VolSurf_PSA>
36.44

>  <VolSurf_HSA>
425.836

>  <VolSurf_PSAR>
0.0788274

>  <VolSurf_PHSAR>
0.0855729

>  <VolSurf_LgD5>
-1.67

>  <VolSurf_LgD6>
-1.67

>  <VolSurf_LgD7>
-1.67

>  <VolSurf_LgD7.5>
-1.67

>  <VolSurf_LgD8>
-1.67

>  <VolSurf_LgD9>
-1.67

>  <VolSurf_LgD10>
-1.67

>  <VolSurf_AUS7.4>
0.0

>  <VolSurf_%FU4>
0.0

>  <VolSurf_%FU5>
0.0

>  <VolSurf_%FU6>
0.0

>  <VolSurf_%FU7>
0.0

>  <VolSurf_%FU8>
0.0

>  <VolSurf_%FU9>
0.0

>  <VolSurf_%FU10>
0.0

>  <ID>
325

>  <MOKAID>
326

>  <Clearance Route>
metabolic

>  <PC1>
2.39034

>  <PC2>
0.747077

$$$$
Oseltamivir acid
  -OEChem-08301611272D

 20 20  0     1  0  0  0  0  0999 V2000
    0.8646   -4.5027    0.0000 C   0  0  0  0  0  0  0  0  0  0  0  0
   -0.0015   -4.0027    0.0000 C   0  0  0  0  0  0  0  0  0  0  0  0
   -0.0015   -3.0027    0.0000 C   0  0  0  0  0  0  0  0  0  0  0  0
    0.8646   -2.5027    0.0000 C   0  0  0  0  0  0  0  0  0  0  0  0
    1.7306   -3.0027    0.0000 C   0  0  0  0  0  0  0  0  0  0  0  0
   -0.8675   -2.5027    0.0000 O   0  0  0  0  0  0  0  0  0  0  0  0
   -0.8675   -1.5027    0.0000 C   0  0  2  0  0  0  0  0  0  0  0  0
    0.0000   -1.0052    0.0000 C   0  0  0  0  0  0  0  0  0  0  0  0
    0.0000    0.0000    0.0000 C   0  0  0  0  0  0  0  0  0  0  0  0
   -0.8675    0.5077    0.0000 C   0  0  0  0  0  0  0  0  0  0  0  0
   -1.7350   -0.0000    0.0000 C   0  0  2  0  0  0  0  0  0  0  0  0
   -2.6025    0.4974    0.0000 N   0  0  0  0  0  0  0  0  0  0  0  0
   -1.7350   -1.0052    0.0000 C   0  0  1  0  0  0  0  0  0  0  0  0
   -2.6003   -1.5065    0.0000 N   0  0  0  0  0  0  0  0  0  0  0  0
   -2.5988   -2.5065    0.0000 C   0  0  0  0  0  0  0  0  0  0  0  0
   -1.7321   -3.0052    0.0000 O   0  0  0  0  0  0  0  0  0  0  0  0
   -3.4641   -3.0077    0.0000 C   0  0  0  0  0  0  0  0  0  0  0  0
    0.8675    0.4974    0.0000 C   0  0  0  0  0  0  0  0  0  0  0  0
    1.7320   -0.0051    0.0000 O   0  0  0  0  0  0  0  0  0  0  0  0
    0.8704    1.4974    0.0000 O   0  0  0  0  0  0  0  0  0  0  0  0
  1  2  1  0  0  0  0
  2  3  1  0  0  0  0
  3  4  1  0  0  0  0
  4  5  1  0  0  0  0
  3  6  1  0  0  0  0
  7  6  1  1  0  0  0
  7 13  1  0  0  0  0
  7  8  1  0  0  0  0
  8  9  2  0  0  0  0
  9 10  1  0  0  0  0
 10 11  1  0  0  0  0
 11 12  1  1  0  0  0
 11 13  1  0  0  0  0
 13 14  1  6  0  0  0
 14 15  1  0  0  0  0
 15 16  2  0  0  0  0
 15 17  1  0  0  0  0
  9 18  1  0  0  0  0
 18 19  2  0  0  0  0
 18 20  1  0  0  0  0
M  END
>  <Name>
Oseltamivir acid

>  <CAS #>
187227-45-8

>  <human Clearance (mL/min/kg)>
4.8

>  <Primary mechanism (metabolic, biliary or renal)>
renal

>  <seqId>
672.0

>  <Code (mechanism and clearance degree index)>
R1

>  < Five M1 and R1 test groups>
R1_2

>  <formamide>
0

>  <prodrug phosphates>
0

>  <VolSurf_V>
658.25

>  <VolSurf_S>
459.971

>  <VolSurf_R>
1.43107

>  <VolSurf_G>
1.40922

>  <VolSurf_IW1>
0.114307

>  <VolSurf_IW2>
0.221837

>  <VolSurf_IW3>
0.391314

>  <VolSurf_IW4>
0.569717

>  <VolSurf_ID1>
0.059491

>  <VolSurf_ID2>
0.130739

>  <VolSurf_ID3>
0.220637

>  <VolSurf_ID4>
0.298781

>  <VolSurf_HL1>
34.4419

>  <VolSurf_HL2>
47.0588

>  <VolSurf_A>
4.94249

>  <VolSurf_CP>
0.0429625

>  <VolSurf_POL>
29.897

>  <VolSurf_MW>
284.351

>  <VolSurf_FLEX>
1.33715

>  <VolSurf_FLEX_RB>
0.133715

>  <VolSurf_NCC>
2.0

>  <VolSurf_LOGP n-Oct>
0.565

>  <VolSurf_LOGP c-Hex>
-1.658

>  <VolSurf_PSA>
122.36

>  <VolSurf_HSA>
337.611

>  <VolSurf_PSAR>
0.266017

>  <VolSurf_PHSAR>
0.362429

>  <VolSurf_LgD5>
-1.72137

>  <VolSurf_LgD6>
-1.71148

>  <VolSurf_LgD7>
-1.72131

>  <VolSurf_LgD7.5>
-1.74596

>  <VolSurf_LgD8>
-1.81235

>  <VolSurf_LgD9>
-2.14371

>  <VolSurf_LgD10>
-2.38538

>  <VolSurf_AUS7.4>
0.0

>  <VolSurf_%FU4>
0.0

>  <VolSurf_%FU5>
0.0

>  <VolSurf_%FU6>
0.0

>  <VolSurf_%FU7>
0.0

>  <VolSurf_%FU8>
0.0

>  <VolSurf_%FU9>
0.0

>  <VolSurf_%FU10>
0.0

>  <ID>
326

>  <MOKAID>
327

>  <Clearance Route>
renal

>  <PC1>
-2.09614

>  <PC2>
1.04574

$$$$
Oxazepam
  -OEChem-08301611272D

 20 22  0     1  0  0  0  0  0999 V2000
    4.6973    1.6359    0.0000 O   0  0  0  0  0  0  0  0  0  0  0  0
    3.7246    1.4039    0.0000 C   0  0  3  0  0  0  0  0  0  0  0  0
    3.5069    0.4226    0.0000 N   0  0  0  0  0  0  0  0  0  0  0  0
    2.6022   -0.0243    0.0000 C   0  0  0  0  0  0  0  0  0  0  0  0
    2.6132   -1.0242    0.0000 C   0  0  0  0  0  0  0  0  0  0  0  0
    3.4907   -1.5146    0.0000 C   0  0  0  0  0  0  0  0  0  0  0  0
    3.5017   -2.5146    0.0000 C   0  0  0  0  0  0  0  0  0  0  0  0
    2.6442   -3.0292    0.0000 C   0  0  0  0  0  0  0  0  0  0  0  0
    1.7668   -2.5388    0.0000 C   0  0  0  0  0  0  0  0  0  0  0  0
    1.7468   -1.5338    0.0000 C   0  0  0  0  0  0  0  0  0  0  0  0
    1.6906    0.4013    0.0000 C   0  0  0  0  0  0  0  0  0  0  0  0
    0.9648   -0.2906    0.0000 C   0  0  0  0  0  0  0  0  0  0  0  0
    0.0000    0.0000    0.0000 C   0  0  0  0  0  0  0  0  0  0  0  0
   -0.7278   -0.6857    0.0000 Cl  0  0  0  0  0  0  0  0  0  0  0  0
   -0.2322    0.9784    0.0000 C   0  0  0  0  0  0  0  0  0  0  0  0
    0.5003    1.6662    0.0000 C   0  0  0  0  0  0  0  0  0  0  0  0
    1.4584    1.3796    0.0000 C   0  0  0  0  0  0  0  0  0  0  0  0
    2.0794    2.1743    0.0000 N   0  0  0  0  0  0  0  0  0  0  0  0
    3.0873    2.1814    0.0000 C   0  0  0  0  0  0  0  0  0  0  0  0
    3.5119    3.0868    0.0000 O   0  0  0  0  0  0  0  0  0  0  0  0
  1  2  1  0  0  0  0
  2 19  1  0  0  0  0
  2  3  1  0  0  0  0
  3  4  2  0  0  0  0
  4  5  1  0  0  0  0
  5 10  2  0  0  0  0
  5  6  1  0  0  0  0
  6  7  2  0  0  0  0
  7  8  1  0  0  0  0
  8  9  2  0  0  0  0
  9 10  1  0  0  0  0
  4 11  1  0  0  0  0
 11 17  2  0  0  0  0
 11 12  1  0  0  0  0
 12 13  2  0  0  0  0
 13 14  1  0  0  0  0
 13 15  1  0  0  0  0
 15 16  2  0  0  0  0
 16 17  1  0  0  0  0
 17 18  1  0  0  0  0
 18 19  1  0  0  0  0
 19 20  2  0  0  0  0
M  END
>  <Name>
Oxazepam

>  <CAS #>
604-75-1

>  <human Clearance (mL/min/kg)>
1.1

>  <Primary mechanism (metabolic, biliary or renal)>
metabolic

>  <seqId>
674.0

>  <Code (mechanism and clearance degree index)>
M1

>  < Five M1 and R1 test groups>
M1_3

>  <formamide>
0

>  <prodrug phosphates>
0

>  <VolSurf_V>
601.875

>  <VolSurf_S>
415.875

>  <VolSurf_R>
1.44725

>  <VolSurf_G>
1.32499

>  <VolSurf_IW1>
0.159287

>  <VolSurf_IW2>
0.500482

>  <VolSurf_IW3>
1.06131

>  <VolSurf_IW4>
1.43987

>  <VolSurf_ID1>
0.0705686

>  <VolSurf_ID2>
0.104043

>  <VolSurf_ID3>
0.110708

>  <VolSurf_ID4>
0.133333

>  <VolSurf_HL1>
1.397

>  <VolSurf_HL2>
1.16046

>  <VolSurf_A>
6.29113

>  <VolSurf_CP>
1.49205

>  <VolSurf_POL>
29.596

>  <VolSurf_MW>
286.713

>  <VolSurf_FLEX>
0.291065

>  <VolSurf_FLEX_RB>
0.145532

>  <VolSurf_NCC>
0.0

>  <VolSurf_LOGP n-Oct>
2.32

>  <VolSurf_LOGP c-Hex>
0.648

>  <VolSurf_PSA>
61.96

>  <VolSurf_HSA>
353.915

>  <VolSurf_PSAR>
0.148987

>  <VolSurf_PHSAR>
0.17507

>  <VolSurf_LgD5>
2.31972

>  <VolSurf_LgD6>
2.31997

>  <VolSurf_LgD7>
2.31995

>  <VolSurf_LgD7.5>
2.31986

>  <VolSurf_LgD8>
2.31957

>  <VolSurf_LgD9>
2.31568

>  <VolSurf_LgD10>
2.2779

>  <VolSurf_AUS7.4>
2.0

>  <VolSurf_%FU4>
99.3497

>  <VolSurf_%FU5>
99.9345

>  <VolSurf_%FU6>
99.9925

>  <VolSurf_%FU7>
99.9894

>  <VolSurf_%FU8>
99.9002

>  <VolSurf_%FU9>
99.0098

>  <VolSurf_%FU10>
90.7574

>  <ID>
327

>  <MOKAID>
328

>  <Clearance Route>
metabolic

>  <PC1>
4.42863

>  <PC2>
2.80822

$$$$
Oxiracetam
  -OEChem-08301611272D

 11 11  0     1  0  0  0  0  0999 V2000
   -0.3690    4.0415    0.0000 N   0  0  0  0  0  0  0  0  0  0  0  0
   -0.3675    3.0415    0.0000 C   0  0  0  0  0  0  0  0  0  0  0  0
   -1.2328    2.5402    0.0000 O   0  0  0  0  0  0  0  0  0  0  0  0
    0.4993    2.5428    0.0000 C   0  0  0  0  0  0  0  0  0  0  0  0
    0.5008    1.5428    0.0000 N   0  0  0  0  0  0  0  0  0  0  0  0
   -0.3065    0.9519    0.0000 C   0  0  0  0  0  0  0  0  0  0  0  0
    0.0000    0.0000    0.0000 C   0  0  3  0  0  0  0  0  0  0  0  0
   -0.5889   -0.8082    0.0000 O   0  0  0  0  0  0  0  0  0  0  0  0
    1.0015    0.0000    0.0000 C   0  0  0  0  0  0  0  0  0  0  0  0
    1.3133    0.9519    0.0000 C   0  0  0  0  0  0  0  0  0  0  0  0
    2.2648    1.2596    0.0000 O   0  0  0  0  0  0  0  0  0  0  0  0
  1  2  1  0  0  0  0
  2  3  2  0  0  0  0
  2  4  1  0  0  0  0
  4  5  1  0  0  0  0
  5 10  1  0  0  0  0
  5  6  1  0  0  0  0
  6  7  1  0  0  0  0
  7  8  1  0  0  0  0
  7  9  1  0  0  0  0
  9 10  1  0  0  0  0
 10 11  2  0  0  0  0
M  END
>  <Name>
Oxiracetam

>  <CAS #>
62613-82-5

>  <human Clearance (mL/min/kg)>
1.8

>  <Primary mechanism (metabolic, biliary or renal)>
renal

>  <seqId>
675.0

>  <Code (mechanism and clearance degree index)>
R1

>  < Five M1 and R1 test groups>
R1_4

>  <formamide>
0

>  <prodrug phosphates>
0

>  <VolSurf_V>
347.5

>  <VolSurf_S>
269.498

>  <VolSurf_R>
1.28944

>  <VolSurf_G>
1.19716

>  <VolSurf_IW1>
0.0277581

>  <VolSurf_IW2>
0.0494068

>  <VolSurf_IW3>
0.148564

>  <VolSurf_IW4>
0.690125

>  <VolSurf_ID1>
0.0527914

>  <VolSurf_ID2>
0.0680093

>  <VolSurf_ID3>
0.215497

>  <VolSurf_ID4>
0.497327

>  <VolSurf_HL1>
13.2597

>  <VolSurf_HL2>
13.75

>  <VolSurf_A>
0.389315

>  <VolSurf_CP>
0.427122

>  <VolSurf_POL>
14.191

>  <VolSurf_MW>
158.155

>  <VolSurf_FLEX>
0.5985

>  <VolSurf_FLEX_RB>
0.149625

>  <VolSurf_NCC>
0.0

>  <VolSurf_LOGP n-Oct>
-2.498

>  <VolSurf_LOGP c-Hex>
-4.196

>  <VolSurf_PSA>
83.4

>  <VolSurf_HSA>
186.098

>  <VolSurf_PSAR>
0.309465

>  <VolSurf_PHSAR>
0.448152

>  <VolSurf_LgD5>
-2.498

>  <VolSurf_LgD6>
-2.498

>  <VolSurf_LgD7>
-2.498

>  <VolSurf_LgD7.5>
-2.498

>  <VolSurf_LgD8>
-2.498

>  <VolSurf_LgD9>
-2.49802

>  <VolSurf_LgD10>
-2.49815

>  <VolSurf_AUS7.4>
2.0

>  <VolSurf_%FU4>
100.0

>  <VolSurf_%FU5>
100.0

>  <VolSurf_%FU6>
100.0

>  <VolSurf_%FU7>
100.0

>  <VolSurf_%FU8>
99.9996

>  <VolSurf_%FU9>
99.9964

>  <VolSurf_%FU10>
99.9644

>  <ID>
328

>  <MOKAID>
329

>  <Clearance Route>
uncertain

>  <PC1>
-0.48512299999999997

>  <PC2>
4.10186

$$$$
Oxprenolol
  -OEChem-08301611272D

 19 19  0     1  0  0  0  0  0999 V2000
    0.8675    1.5027    0.0000 C   0  0  0  0  0  0  0  0  0  0  0  0
    0.8675    0.4975    0.0000 C   0  0  0  0  0  0  0  0  0  0  0  0
    0.0000    0.0000    0.0000 C   0  0  0  0  0  0  0  0  0  0  0  0
   -0.8675    0.4975    0.0000 C   0  0  0  0  0  0  0  0  0  0  0  0
   -0.8675    1.5027    0.0000 C   0  0  0  0  0  0  0  0  0  0  0  0
    0.0000    2.0104    0.0000 C   0  0  0  0  0  0  0  0  0  0  0  0
    1.7328   -0.0038    0.0000 O   0  0  0  0  0  0  0  0  0  0  0  0
    2.5995    0.4950    0.0000 C   0  0  0  0  0  0  0  0  0  0  0  0
    3.4648   -0.0063    0.0000 C   0  0  1  0  0  0  0  0  0  0  0  0
    4.3316    0.4925    0.0000 C   0  0  0  0  0  0  0  0  0  0  0  0
    5.1969   -0.0088    0.0000 N   0  0  0  0  0  0  0  0  0  0  0  0
    6.0636    0.4900    0.0000 C   0  0  0  0  0  0  0  0  0  0  0  0
    6.0651    1.4900    0.0000 C   0  0  0  0  0  0  0  0  0  0  0  0
    6.9289   -0.0113    0.0000 C   0  0  0  0  0  0  0  0  0  0  0  0
    3.4634   -1.0063    0.0000 O   0  0  0  0  0  0  0  0  0  0  0  0
    1.7350    2.0001    0.0000 O   0  0  0  0  0  0  0  0  0  0  0  0
    1.7379    3.0001    0.0000 C   0  0  0  0  0  0  0  0  0  0  0  0
    2.6054    3.4976    0.0000 C   0  0  0  0  0  0  0  0  0  0  0  0
    2.6084    4.4976    0.0000 C   0  0  0  0  0  0  0  0  0  0  0  0
  1  6  2  0  0  0  0
  1  2  1  0  0  0  0
  2  3  2  0  0  0  0
  3  4  1  0  0  0  0
  4  5  2  0  0  0  0
  5  6  1  0  0  0  0
  2  7  1  0  0  0  0
  7  8  1  0  0  0  0
  8  9  1  0  0  0  0
  9 10  1  0  0  0  0
 10 11  1  0  0  0  0
 11 12  1  0  0  0  0
 12 13  1  0  0  0  0
 12 14  1  0  0  0  0
  9 15  1  1  0  0  0
  1 16  1  0  0  0  0
 16 17  1  0  0  0  0
 17 18  1  0  0  0  0
 18 19  2  0  0  0  0
M  END
>  <Name>
Oxprenolol

>  <CAS #>
6452-71-7

>  <human Clearance (mL/min/kg)>
7.2

>  <Primary mechanism (metabolic, biliary or renal)>
metabolic

>  <seqId>
676.0

>  <Code (mechanism and clearance degree index)>
M1

>  < Five M1 and R1 test groups>
M1_1

>  <formamide>
0

>  <prodrug phosphates>
0

>  <VolSurf_V>
701.75

>  <VolSurf_S>
495.642

>  <VolSurf_R>
1.41584

>  <VolSurf_G>
1.47857

>  <VolSurf_IW1>
0.0742336

>  <VolSurf_IW2>
0.31628

>  <VolSurf_IW3>
0.704384

>  <VolSurf_IW4>
0.935411

>  <VolSurf_ID1>
0.0416318

>  <VolSurf_ID2>
0.113483

>  <VolSurf_ID3>
0.236561

>  <VolSurf_ID4>
0.312217

>  <VolSurf_HL1>
1.56954

>  <VolSurf_HL2>
2.0

>  <VolSurf_A>
5.6673

>  <VolSurf_CP>
0.721271

>  <VolSurf_POL>
32.942

>  <VolSurf_MW>
266.356

>  <VolSurf_FLEX>
2.49065

>  <VolSurf_FLEX_RB>
0.207554

>  <VolSurf_NCC>
1.0

>  <VolSurf_LOGP n-Oct>
2.024

>  <VolSurf_LOGP c-Hex>
1.146

>  <VolSurf_PSA>
66.67

>  <VolSurf_HSA>
428.972

>  <VolSurf_PSAR>
0.134512

>  <VolSurf_PHSAR>
0.155418

>  <VolSurf_LgD5>
-1.35133

>  <VolSurf_LgD6>
-0.973678

>  <VolSurf_LgD7>
-0.14299

>  <VolSurf_LgD7.5>
0.335262

>  <VolSurf_LgD8>
0.811665

>  <VolSurf_LgD9>
1.61949

>  <VolSurf_LgD10>
1.96184

>  <VolSurf_AUS7.4>
0.362752

>  <VolSurf_%FU4>
6.49557E-4

>  <VolSurf_%FU5>
0.00649519

>  <VolSurf_%FU6>
0.064914

>  <VolSurf_%FU7>
0.645369

>  <VolSurf_%FU8>
6.09942

>  <VolSurf_%FU9>
39.3778

>  <VolSurf_%FU10>
86.6587

>  <ID>
329

>  <MOKAID>
330

>  <Clearance Route>
metabolic

>  <PC1>
0.9787389999999999

>  <PC2>
0.8613850000000001

$$$$
Oxytetracycline
  -OEChem-08301611272D

 35 38  0     1  0  0  0  0  0999 V2000
   -1.7272    3.0228    0.0000 C   0  0  0  0  0  0  0  0  0  0  0  0
   -0.8630    2.5197    0.0000 N   0  0  0  0  0  0  0  0  0  0  0  0
    0.0048    3.0166    0.0000 C   0  0  0  0  0  0  0  0  0  0  0  0
   -0.8666    1.5197    0.0000 C   0  0  1  0  0  0  0  0  0  0  0  0
   -1.7377    1.0170    0.0000 C   0  0  2  0  0  0  0  0  0  0  0  0
   -2.6116    1.5235    0.0000 C   0  0  1  0  0  0  0  0  0  0  0  0
   -2.6133    2.5235    0.0000 O   0  0  0  0  0  0  0  0  0  0  0  0
   -3.4796    1.0164    0.0000 C   0  0  1  0  0  0  0  0  0  0  0  0
   -3.4793    0.0084    0.0000 C   0  0  0  0  0  0  0  0  0  0  0  0
   -2.6109   -0.4926    0.0000 C   0  0  0  0  0  0  0  0  0  0  0  0
   -2.6108   -1.4926    0.0000 O   0  0  0  0  0  0  0  0  0  0  0  0
   -1.7427    0.0086    0.0000 C   0  0  1  0  0  0  0  0  0  0  0  0
   -1.7452   -0.9914    0.0000 O   0  0  0  0  0  0  0  0  0  0  0  0
   -0.8766   -0.4971    0.0000 C   0  0  0  0  0  0  0  0  0  0  0  0
   -0.8829   -1.4971    0.0000 O   0  0  0  0  0  0  0  0  0  0  0  0
    0.0000    0.0000    0.0000 C   0  0  0  0  0  0  0  0  0  0  0  0
    0.0049    1.0084    0.0000 C   0  0  0  0  0  0  0  0  0  0  0  0
    0.8739    1.5033    0.0000 O   0  0  0  0  0  0  0  0  0  0  0  0
    0.8629   -0.5054    0.0000 C   0  0  0  0  0  0  0  0  0  0  0  0
    0.8566   -1.5054    0.0000 O   0  0  0  0  0  0  0  0  0  0  0  0
    1.7320   -0.0109    0.0000 N   0  0  0  0  0  0  0  0  0  0  0  0
   -4.3493   -0.4903    0.0000 C   0  0  0  0  0  0  0  0  0  0  0  0
   -4.3502   -1.4903    0.0000 O   0  0  0  0  0  0  0  0  0  0  0  0
   -5.2160    0.0086    0.0000 C   0  0  0  0  0  0  0  0  0  0  0  0
   -6.0852   -0.4892    0.0000 C   0  0  0  0  0  0  0  0  0  0  0  0
   -6.0855   -1.4892    0.0000 O   0  0  0  0  0  0  0  0  0  0  0  0
   -6.9531    0.0086    0.0000 C   0  0  0  0  0  0  0  0  0  0  0  0
   -6.9531    1.0142    0.0000 C   0  0  0  0  0  0  0  0  0  0  0  0
   -6.0852    1.5220    0.0000 C   0  0  0  0  0  0  0  0  0  0  0  0
   -5.2173    1.0142    0.0000 C   0  0  0  0  0  0  0  0  0  0  0  0
   -4.3519    1.5209    0.0000 C   0  0  2  0  0  0  0  0  0  0  0  0
   -4.9976    2.2845    0.0000 C   0  0  0  0  0  0  0  0  0  0  0  0
   -3.7103    2.2879    0.0000 O   0  0  0  0  0  0  0  0  0  0  0  0
   -1.7368    2.0170    0.0000 H   0  0  0  0  0  0  0  0  0  0  0  0
   -3.4818    2.0164    0.0000 H   0  0  0  0  0  0  0  0  0  0  0  0
  1  2  1  0  0  0  0
  2  3  1  0  0  0  0
  4  2  1  6  0  0  0
  4 17  1  0  0  0  0
  4  5  1  0  0  0  0
  5 12  1  0  0  0  0
  5  6  1  0  0  0  0
  6  7  1  6  0  0  0
  6  8  1  0  0  0  0
  8 31  1  0  0  0  0
  8  9  1  0  0  0  0
  9 10  2  0  0  0  0
 10 11  1  0  0  0  0
 10 12  1  0  0  0  0
 12 13  1  6  0  0  0
 12 14  1  0  0  0  0
 14 15  2  0  0  0  0
 14 16  1  0  0  0  0
 16 17  2  0  0  0  0
 17 18  1  0  0  0  0
 16 19  1  0  0  0  0
 19 20  2  0  0  0  0
 19 21  1  0  0  0  0
  9 22  1  0  0  0  0
 22 23  2  0  0  0  0
 22 24  1  0  0  0  0
 24 30  2  0  0  0  0
 24 25  1  0  0  0  0
 25 26  1  0  0  0  0
 25 27  2  0  0  0  0
 27 28  1  0  0  0  0
 28 29  2  0  0  0  0
 29 30  1  0  0  0  0
 30 31  1  0  0  0  0
 31 32  1  0  0  0  0
 31 33  1  1  0  0  0
  5 34  1  6  0  0  0
  8 35  1  6  0  0  0
M  END
>  <Name>
Oxytetracycline

>  <CAS #>
79-57-2

>  <human Clearance (mL/min/kg)>
2.0

>  <Primary mechanism (metabolic, biliary or renal)>
renal

>  <seqId>
679.0

>  <Code (mechanism and clearance degree index)>
R1

>  < Five M1 and R1 test groups>
R1_4

>  <formamide>
0

>  <prodrug phosphates>
0

>  <VolSurf_V>
834.375

>  <VolSurf_S>
539.101

>  <VolSurf_R>
1.54772

>  <VolSurf_G>
1.41065

>  <VolSurf_IW1>
0.0836935

>  <VolSurf_IW2>
0.176535

>  <VolSurf_IW3>
0.36517

>  <VolSurf_IW4>
0.543681

>  <VolSurf_ID1>
0.0599589

>  <VolSurf_ID2>
0.110022

>  <VolSurf_ID3>
0.255637

>  <VolSurf_ID4>
0.352395

>  <VolSurf_HL1>
13.958

>  <VolSurf_HL2>
19.2653

>  <VolSurf_A>
4.62512

>  <VolSurf_CP>
0.110468

>  <VolSurf_POL>
44.398

>  <VolSurf_MW>
459.426

>  <VolSurf_FLEX>
0.285084

>  <VolSurf_FLEX_RB>
0.0285084

>  <VolSurf_NCC>
3.0

>  <VolSurf_LOGP n-Oct>
-1.867

>  <VolSurf_LOGP c-Hex>
-7.378

>  <VolSurf_PSA>
215.68

>  <VolSurf_HSA>
323.421

>  <VolSurf_PSAR>
0.400073

>  <VolSurf_PHSAR>
0.666871

>  <VolSurf_LgD5>
-4.17816

>  <VolSurf_LgD6>
-4.198

>  <VolSurf_LgD7>
-4.40421

>  <VolSurf_LgD7.5>
-4.6903

>  <VolSurf_LgD8>
-5.10844

>  <VolSurf_LgD9>
-6.03078

>  <VolSurf_LgD10>
-6.48253

>  <VolSurf_AUS7.4>
0.0

>  <VolSurf_%FU4>
0.0

>  <VolSurf_%FU5>
0.0

>  <VolSurf_%FU6>
0.0

>  <VolSurf_%FU7>
0.0

>  <VolSurf_%FU8>
0.0

>  <VolSurf_%FU9>
0.0

>  <VolSurf_%FU10>
0.0

>  <ID>
330

>  <MOKAID>
331

>  <Clearance Route>
renal

>  <PC1>
-5.12595

>  <PC2>
0.638741

$$$$
Paclitaxel
  -OEChem-08301611272D

 64 70  0     1  0  0  0  0  0999 V2000
   -0.1684    4.3177    0.0000 C   0  0  0  0  0  0  0  0  0  0  0  0
    0.2412    3.4054    0.0000 C   0  0  0  0  0  0  0  0  0  0  0  0
   -0.3440    2.5946    0.0000 O   0  0  0  0  0  0  0  0  0  0  0  0
    1.2361    3.3041    0.0000 O   0  0  0  0  0  0  0  0  0  0  0  0
    1.6457    2.3918    0.0000 C   0  0  1  0  0  0  0  0  0  0  0  0
    2.7189    2.3918    0.0000 C   0  0  0  0  0  0  0  0  0  0  0  0
    3.0742    3.3266    0.0000 O   0  0  0  0  0  0  0  0  0  0  0  0
    3.4665    1.7276    0.0000 C   0  0  2  0  0  0  0  0  0  0  0  0
    4.3326    1.2278    0.0000 C   0  0  0  0  0  0  0  0  0  0  0  0
    4.3444    2.2307    0.0000 C   0  0  1  0  0  0  0  0  0  0  0  0
    4.3466    3.2307    0.0000 O   0  0  0  0  0  0  0  0  0  0  0  0
    5.2184    1.7248    0.0000 C   0  0  0  0  0  0  0  0  0  0  0  0
    5.2143    0.7157    0.0000 C   0  0  1  0  0  0  0  0  0  0  0  0
    5.7182   -0.1594    0.0000 O   0  0  0  0  0  0  0  0  0  0  0  0
    4.8430   -0.6632    0.0000 C   0  0  0  0  0  0  0  0  0  0  0  0
    4.3392    0.2120    0.0000 C   0  0  2  0  0  0  0  0  0  0  0  0
    6.0290   -0.2431    0.0000 O   0  0  0  0  0  0  0  0  0  0  0  0
    6.2865   -1.2094    0.0000 C   0  0  0  0  0  0  0  0  0  0  0  0
    5.5785   -1.9156    0.0000 O   0  0  0  0  0  0  0  0  0  0  0  0
    7.2521   -1.4695    0.0000 C   0  0  0  0  0  0  0  0  0  0  0  0
    3.4702    0.7206    0.0000 C   0  0  1  0  0  0  0  0  0  0  0  0
    2.7546    0.0000    0.0000 C   0  0  2  0  0  0  0  0  0  0  0  0
    3.4271   -1.6156    0.0000 O   0  0  0  0  0  0  0  0  0  0  0  0
    2.8197   -2.4100    0.0000 C   0  0  0  0  0  0  0  0  0  0  0  0
    1.8281   -2.2812    0.0000 O   0  0  0  0  0  0  0  0  0  0  0  0
    3.2040   -3.3332    0.0000 C   0  0  0  0  0  0  0  0  0  0  0  0
    2.5911   -4.1300    0.0000 C   0  0  0  0  0  0  0  0  0  0  0  0
    2.9754   -5.0532    0.0000 C   0  0  0  0  0  0  0  0  0  0  0  0
    3.9663   -5.1878    0.0000 C   0  0  0  0  0  0  0  0  0  0  0  0
    4.5792   -4.3911    0.0000 C   0  0  0  0  0  0  0  0  0  0  0  0
    4.2012   -3.4598    0.0000 C   0  0  0  0  0  0  0  0  0  0  0  0
    1.7466    0.0000    0.0000 C   0  0  2  0  0  0  0  0  0  0  0  0
    2.0040   -0.9663    0.0000 O   0  0  0  0  0  0  0  0  0  0  0  0
    0.8733   -0.5008    0.0000 C   0  0  0  0  0  0  0  0  0  0  0  0
    0.0000    0.0000    0.0000 C   0  0  2  0  0  0  0  0  0  0  0  0
   -0.8653   -0.5013    0.0000 O   0  0  0  0  0  0  0  0  0  0  0  0
   -1.7320   -0.0025    0.0000 C   0  0  0  0  0  0  0  0  0  0  0  0
   -1.7335    0.9975    0.0000 O   0  0  0  0  0  0  0  0  0  0  0  0
   -2.5973   -0.5038    0.0000 C   0  0  2  0  0  0  0  0  0  0  0  0
   -2.5959   -1.5038    0.0000 O   0  0  0  0  0  0  0  0  0  0  0  0
   -3.4641   -0.0051    0.0000 C   0  0  1  0  0  0  0  0  0  0  0  0
   -4.3294   -0.5063    0.0000 N   0  0  0  0  0  0  0  0  0  0  0  0
   -4.3279   -1.5063    0.0000 C   0  0  0  0  0  0  0  0  0  0  0  0
   -3.4612   -2.0051    0.0000 O   0  0  0  0  0  0  0  0  0  0  0  0
   -5.1932   -2.0076    0.0000 C   0  0  0  0  0  0  0  0  0  0  0  0
   -5.1888   -3.0128    0.0000 C   0  0  0  0  0  0  0  0  0  0  0  0
   -6.0541   -3.5141    0.0000 C   0  0  0  0  0  0  0  0  0  0  0  0
   -6.9238   -3.0204    0.0000 C   0  0  0  0  0  0  0  0  0  0  0  0
   -6.9282   -2.0153    0.0000 C   0  0  0  0  0  0  0  0  0  0  0  0
   -6.0630   -1.5037    0.0000 C   0  0  0  0  0  0  0  0  0  0  0  0
   -3.4656    0.9949    0.0000 C   0  0  0  0  0  0  0  0  0  0  0  0
   -4.3383    1.4937    0.0000 C   0  0  0  0  0  0  0  0  0  0  0  0
   -4.3398    2.4937    0.0000 C   0  0  0  0  0  0  0  0  0  0  0  0
   -3.4774    3.0001    0.0000 C   0  0  0  0  0  0  0  0  0  0  0  0
   -2.6047    2.5013    0.0000 C   0  0  0  0  0  0  0  0  0  0  0  0
   -2.5943    1.4962    0.0000 C   0  0  0  0  0  0  0  0  0  0  0  0
   -0.0000    1.0119    0.0000 C   0  0  0  0  0  0  0  0  0  0  0  0
    0.8733    1.5230    0.0000 C   0  0  0  0  0  0  0  0  0  0  0  0
    1.7466    1.0119    0.0000 C   0  0  0  0  0  0  0  0  0  0  0  0
    2.0923    1.9502    0.0000 C   0  0  0  0  0  0  0  0  0  0  0  0
    2.7311    0.8363    0.0000 C   0  0  0  0  0  0  0  0  0  0  0  0
   -0.8675    1.5093    0.0000 C   0  0  0  0  0  0  0  0  0  0  0  0
    6.1809    0.9720    0.0000 H   0  0  0  0  0  0  0  0  0  0  0  0
    3.5995   -0.2710    0.0000 H   0  0  0  0  0  0  0  0  0  0  0  0
  1  2  1  0  0  0  0
  2  3  2  0  0  0  0
  2  4  1  0  0  0  0
  5  4  1  1  0  0  0
  5 58  1  0  0  0  0
  5  6  1  0  0  0  0
  6  7  2  0  0  0  0
  6  8  1  0  0  0  0
  8 21  1  0  0  0  0
  8  9  1  1  0  0  0
  8 10  1  0  0  0  0
 10 11  1  1  0  0  0
 10 12  1  0  0  0  0
 12 13  1  0  0  0  0
 13 16  1  0  0  0  0
 13 14  1  0  0  0  0
 14 15  1  0  0  0  0
 15 16  1  0  0  0  0
 16 17  1  6  0  0  0
 17 18  1  0  0  0  0
 18 19  2  0  0  0  0
 18 20  1  0  0  0  0
 16 21  1  0  0  0  0
 21 22  1  0  0  0  0
 22 23  1  6  0  0  0
 23 24  1  0  0  0  0
 24 25  2  0  0  0  0
 24 26  1  0  0  0  0
 26 31  2  0  0  0  0
 26 27  1  0  0  0  0
 27 28  2  0  0  0  0
 28 29  1  0  0  0  0
 29 30  2  0  0  0  0
 30 31  1  0  0  0  0
 22 32  1  0  0  0  0
 32 59  1  0  0  0  0
 32 33  1  1  0  0  0
 32 34  1  0  0  0  0
 34 35  1  0  0  0  0
 35 36  1  6  0  0  0
 36 37  1  0  0  0  0
 37 38  2  0  0  0  0
 37 39  1  0  0  0  0
 39 40  1  6  0  0  0
 39 41  1  0  0  0  0
 41 42  1  1  0  0  0
 42 43  1  0  0  0  0
 43 44  2  0  0  0  0
 43 45  1  0  0  0  0
 45 50  2  0  0  0  0
 45 46  1  0  0  0  0
 46 47  2  0  0  0  0
 47 48  1  0  0  0  0
 48 49  2  0  0  0  0
 49 50  1  0  0  0  0
 41 51  1  0  0  0  0
 51 56  2  0  0  0  0
 51 52  1  0  0  0  0
 52 53  2  0  0  0  0
 53 54  1  0  0  0  0
 54 55  2  0  0  0  0
 55 56  1  0  0  0  0
 35 57  1  0  0  0  0
 57 58  2  0  0  0  0
 58 59  1  0  0  0  0
 59 60  1  0  0  0  0
 59 61  1  0  0  0  0
 57 62  1  0  0  0  0
 13 63  1  6  0  0  0
 21 64  1  6  0  0  0
M  END
>  <Name>
Paclitaxel

>  <CAS #>
33069-62-4

>  <human Clearance (mL/min/kg)>
6.4

>  <Primary mechanism (metabolic, biliary or renal)>
metabolic

>  <seqId>
680.0

>  <Code (mechanism and clearance degree index)>
M1

>  < Five M1 and R1 test groups>
M1_5

>  <formamide>
0

>  <prodrug phosphates>
0

>  <VolSurf_V>
1627.12

>  <VolSurf_S>
976.187

>  <VolSurf_R>
1.66682

>  <VolSurf_G>
1.76259

>  <VolSurf_IW1>
0.0344928

>  <VolSurf_IW2>
0.0798432

>  <VolSurf_IW3>
0.151405

>  <VolSurf_IW4>
0.125459

>  <VolSurf_ID1>
0.0333851

>  <VolSurf_ID2>
0.082768

>  <VolSurf_ID3>
0.132111

>  <VolSurf_ID4>
0.166883

>  <VolSurf_HL1>
4.95368

>  <VolSurf_HL2>
4.56679

>  <VolSurf_A>
5.83328

>  <VolSurf_CP>
0.267479

>  <VolSurf_POL>
86.1881

>  <VolSurf_MW>
853.906

>  <VolSurf_FLEX>
3.16254

>  <VolSurf_FLEX_RB>
0.137502

>  <VolSurf_NCC>
0.0

>  <VolSurf_LOGP n-Oct>
2.858

>  <VolSurf_LOGP c-Hex>
2.152

>  <VolSurf_PSA>
224.59

>  <VolSurf_HSA>
751.597

>  <VolSurf_PSAR>
0.230069

>  <VolSurf_PHSAR>
0.298817

>  <VolSurf_LgD5>
2.858

>  <VolSurf_LgD6>
2.858

>  <VolSurf_LgD7>
2.858

>  <VolSurf_LgD7.5>
2.85799

>  <VolSurf_LgD8>
2.85797

>  <VolSurf_LgD9>
2.85769

>  <VolSurf_LgD10>
2.8549

>  <VolSurf_AUS7.4>
2.0

>  <VolSurf_%FU4>
100.0

>  <VolSurf_%FU5>
100.0

>  <VolSurf_%FU6>
99.9999

>  <VolSurf_%FU7>
99.9993

>  <VolSurf_%FU8>
99.9928

>  <VolSurf_%FU9>
99.9284

>  <VolSurf_%FU10>
99.2888

>  <ID>
331

>  <MOKAID>
332

>  <Clearance Route>
possible billary

>  <PC1>
2.69942

>  <PC2>
-5.88475

$$$$
Pamidronate
  -OEChem-08301611272D

 13 12  0     0  0  0  0  0  0999 V2000
    0.0000    0.0000    0.0000 C   0  0  0  0  0  0  0  0  0  0  0  0
    1.7500    0.0000    0.0000 P   0  0  0  0  0  0  0  0  0  0  0  0
    1.7500    1.0000    0.0000 O   0  0  0  0  0  0  0  0  0  0  0  0
    1.7500   -1.0000    0.0000 O   0  0  0  0  0  0  0  0  0  0  0  0
    2.7500   -0.0000    0.0000 O   0  0  0  0  0  0  0  0  0  0  0  0
   -1.0000    0.0000    0.0000 P   0  0  0  0  0  0  0  0  0  0  0  0
   -1.0000   -1.0000    0.0000 O   0  0  0  0  0  0  0  0  0  0  0  0
   -1.0000    1.0000    0.0000 O   0  0  0  0  0  0  0  0  0  0  0  0
   -2.0000    0.0000    0.0000 O   0  0  0  0  0  0  0  0  0  0  0  0
   -0.0000   -1.0000    0.0000 C   0  0  0  0  0  0  0  0  0  0  0  0
    0.8660   -1.5000    0.0000 C   0  0  0  0  0  0  0  0  0  0  0  0
    0.8660   -2.5000    0.0000 N   0  0  0  0  0  0  0  0  0  0  0  0
    0.0000    1.0000    0.0000 O   0  0  0  0  0  0  0  0  0  0  0  0
  1  2  1  0  0  0  0
  2  3  1  0  0  0  0
  2  4  1  0  0  0  0
  2  5  2  0  0  0  0
  1  6  1  0  0  0  0
  6  7  1  0  0  0  0
  6  8  1  0  0  0  0
  6  9  2  0  0  0  0
  1 10  1  0  0  0  0
 10 11  1  0  0  0  0
 11 12  1  0  0  0  0
  1 13  1  0  0  0  0
M  END
>  <Name>
Pamidronate

>  <CAS #>
40391-99-9

>  <human Clearance (mL/min/kg)>
1.52

>  <Primary mechanism (metabolic, biliary or renal)>
renal

>  <seqId>
683.0

>  <Code (mechanism and clearance degree index)>
R1

>  < Five M1 and R1 test groups>
R1_1

>  <formamide>
0

>  <prodrug phosphates>
0

>  <VolSurf_V>
418.875

>  <VolSurf_S>
311.795

>  <VolSurf_R>
1.34343

>  <VolSurf_G>
1.23593

>  <VolSurf_IW1>
0.0318378

>  <VolSurf_IW2>
0.0507977

>  <VolSurf_IW3>
0.102128

>  <VolSurf_IW4>
0.493019

>  <VolSurf_ID1>
0.0

>  <VolSurf_ID2>
0.0

>  <VolSurf_ID3>
0.0

>  <VolSurf_ID4>
0.0

>  <VolSurf_HL1>
535.25

>  <VolSurf_HL2>
295.25

>  <VolSurf_A>
0.0

>  <VolSurf_CP>
0.0

>  <VolSurf_POL>
23.705

>  <VolSurf_MW>
233.054

>  <VolSurf_FLEX>
1.18529

>  <VolSurf_FLEX_RB>
0.169328

>  <VolSurf_NCC>
3.0

>  <VolSurf_LOGP n-Oct>
-3.531

>  <VolSurf_LOGP c-Hex>
-6.171

>  <VolSurf_PSA>
160.42

>  <VolSurf_HSA>
151.375

>  <VolSurf_PSAR>
0.514504

>  <VolSurf_PHSAR>
1.05975

>  <VolSurf_LgD5>
-6.33726

>  <VolSurf_LgD6>
-7.49059

>  <VolSurf_LgD7>
-8.68114

>  <VolSurf_LgD7.5>
-8.77588

>  <VolSurf_LgD8>
-8.78791

>  <VolSurf_LgD9>
-8.83868

>  <VolSurf_LgD10>
-9.0

>  <VolSurf_AUS7.4>
0.0

>  <VolSurf_%FU4>
0.0

>  <VolSurf_%FU5>
0.0

>  <VolSurf_%FU6>
0.0

>  <VolSurf_%FU7>
0.0

>  <VolSurf_%FU8>
0.0

>  <VolSurf_%FU9>
0.0

>  <VolSurf_%FU10>
0.0

>  <ID>
332

>  <MOKAID>
333

>  <Clearance Route>
renal

>  <PC1>
-9.23217

>  <PC2>
2.4481

$$$$
Pantoprazole
  -OEChem-08301611272D

 26 28  0     1  0  0  0  0  0999 V2000
    8.7831    3.1110    0.0000 C   0  0  0  0  0  0  0  0  0  0  0  0
    7.7832    3.1080    0.0000 O   0  0  0  0  0  0  0  0  0  0  0  0
    7.2858    2.2405    0.0000 C   0  0  0  0  0  0  0  0  0  0  0  0
    7.7909    1.3774    0.0000 C   0  0  0  0  0  0  0  0  0  0  0  0
    7.2909    0.5054    0.0000 C   0  0  0  0  0  0  0  0  0  0  0  0
    6.2858    0.4964    0.0000 N   0  0  0  0  0  0  0  0  0  0  0  0
    5.7857    1.3684    0.0000 C   0  0  0  0  0  0  0  0  0  0  0  0
    4.7857    1.3683    0.0000 C   0  0  0  0  0  0  0  0  0  0  0  0
    4.2858    0.5023    0.0000 S   0  0  3  0  0  0  0  0  0  0  0  0
    4.7859   -0.3637    0.0000 O   0  0  0  0  0  0  0  0  0  0  0  0
    3.2858    0.5022    0.0000 C   0  0  0  0  0  0  0  0  0  0  0  0
    2.6938   -0.3126    0.0000 N   0  0  0  0  0  0  0  0  0  0  0  0
    1.7360   -0.0013    0.0000 C   0  0  0  0  0  0  0  0  0  0  0  0
    0.8680   -0.4979    0.0000 C   0  0  0  0  0  0  0  0  0  0  0  0
    0.0000    0.0000    0.0000 C   0  0  0  0  0  0  0  0  0  0  0  0
   -0.0000    1.0058    0.0000 C   0  0  0  0  0  0  0  0  0  0  0  0
   -0.8675    1.5033    0.0000 O   0  0  0  0  0  0  0  0  0  0  0  0
   -1.7320    1.0008    0.0000 C   0  0  0  0  0  0  0  0  0  0  0  0
   -1.7291    0.0008    0.0000 F   0  0  0  0  0  0  0  0  0  0  0  0
   -2.5995    1.4982    0.0000 F   0  0  0  0  0  0  0  0  0  0  0  0
    0.8680    1.5137    0.0000 C   0  0  0  0  0  0  0  0  0  0  0  0
    1.7360    1.0058    0.0000 C   0  0  0  0  0  0  0  0  0  0  0  0
    2.6938    1.3168    0.0000 N   0  0  0  0  0  0  0  0  0  0  0  0
    6.2857    2.2404    0.0000 C   0  0  0  0  0  0  0  0  0  0  0  0
    5.7844    3.1057    0.0000 O   0  0  0  0  0  0  0  0  0  0  0  0
    4.7844    3.1041    0.0000 C   0  0  0  0  0  0  0  0  0  0  0  0
  1  2  1  0  0  0  0
  2  3  1  0  0  0  0
  3 24  2  0  0  0  0
  3  4  1  0  0  0  0
  4  5  2  0  0  0  0
  5  6  1  0  0  0  0
  6  7  2  0  0  0  0
  7  8  1  0  0  0  0
  8  9  1  0  0  0  0
  9 10  2  0  0  0  0
  9 11  1  0  0  0  0
 11 23  1  0  0  0  0
 11 12  2  0  0  0  0
 12 13  1  0  0  0  0
 13 22  2  0  0  0  0
 13 14  1  0  0  0  0
 14 15  2  0  0  0  0
 15 16  1  0  0  0  0
 16 17  1  0  0  0  0
 17 18  1  0  0  0  0
 18 19  1  0  0  0  0
 18 20  1  0  0  0  0
 16 21  2  0  0  0  0
 21 22  1  0  0  0  0
 22 23  1  0  0  0  0
  7 24  1  0  0  0  0
 24 25  1  0  0  0  0
 25 26  1  0  0  0  0
M  END
>  <Name>
Pantoprazole

>  <CAS #>
102625-70-7

>  <human Clearance (mL/min/kg)>
2.2

>  <Primary mechanism (metabolic, biliary or renal)>
metabolic

>  <seqId>
688.0

>  <Code (mechanism and clearance degree index)>
M1

>  < Five M1 and R1 test groups>
M1_5

>  <formamide>
0

>  <prodrug phosphates>
0

>  <VolSurf_V>
747.0

>  <VolSurf_S>
518.614

>  <VolSurf_R>
1.44038

>  <VolSurf_G>
1.48669

>  <VolSurf_IW1>
0.071375

>  <VolSurf_IW2>
0.149048

>  <VolSurf_IW3>
0.3279

>  <VolSurf_IW4>
0.691434

>  <VolSurf_ID1>
0.084854

>  <VolSurf_ID2>
0.116559

>  <VolSurf_ID3>
0.146543

>  <VolSurf_ID4>
0.179885

>  <VolSurf_HL1>
3.05215

>  <VolSurf_HL2>
2.04695

>  <VolSurf_A>
3.43761

>  <VolSurf_CP>
0.564019

>  <VolSurf_POL>
35.563

>  <VolSurf_MW>
383.37

>  <VolSurf_FLEX>
2.47128

>  <VolSurf_FLEX_RB>
0.274587

>  <VolSurf_NCC>
0.0

>  <VolSurf_LOGP n-Oct>
1.572

>  <VolSurf_LOGP c-Hex>
1.455

>  <VolSurf_PSA>
112.51

>  <VolSurf_HSA>
406.104

>  <VolSurf_PSAR>
0.216944

>  <VolSurf_PHSAR>
0.277047

>  <VolSurf_LgD5>
1.55279

>  <VolSurf_LgD6>
1.56978

>  <VolSurf_LgD7>
1.56893

>  <VolSurf_LgD7.5>
1.5629

>  <VolSurf_LgD8>
1.54403

>  <VolSurf_LgD9>
1.35065

>  <VolSurf_LgD10>
0.689195

>  <VolSurf_AUS7.4>
1.99581

>  <VolSurf_%FU4>
66.814

>  <VolSurf_%FU5>
95.6722

>  <VolSurf_%FU6>
99.4889

>  <VolSurf_%FU7>
99.2952

>  <VolSurf_%FU8>
93.7598

>  <VolSurf_%FU9>
60.0563

>  <VolSurf_%FU10>
13.0702

>  <ID>
333

>  <MOKAID>
334

>  <Clearance Route>
metabolic

>  <PC1>
2.03248

>  <PC2>
0.17788299999999999

$$$$
Paricalcitol
  -OEChem-08301611272D

 31 33  0     1  0  0  0  0  0999 V2000
    3.9809   -2.4774    0.0000 C   0  0  0  0  0  0  0  0  0  0  0  0
    3.0028   -2.2695    0.0000 C   0  0  2  0  0  0  0  0  0  0  0  0
    2.3336   -3.0126    0.0000 C   0  0  0  0  0  0  0  0  0  0  0  0
    2.6426   -3.9637    0.0000 C   0  0  0  0  0  0  0  0  0  0  0  0
    1.9734   -4.7068    0.0000 C   0  0  2  0  0  0  0  0  0  0  0  0
    0.9953   -4.4988    0.0000 C   0  0  0  0  0  0  0  0  0  0  0  0
    2.2824   -5.6578    0.0000 C   0  0  0  0  0  0  0  0  0  0  0  0
    3.2335   -5.3489    0.0000 C   0  0  0  0  0  0  0  0  0  0  0  0
    1.3313   -5.9668    0.0000 C   0  0  0  0  0  0  0  0  0  0  0  0
    2.5914   -6.6089    0.0000 O   0  0  0  0  0  0  0  0  0  0  0  0
    2.6938   -1.3184    0.0000 C   0  0  1  0  0  0  0  0  0  0  0  0
    3.2858   -0.5036    0.0000 C   0  0  0  0  0  0  0  0  0  0  0  0
    2.6938    0.3110    0.0000 C   0  0  0  0  0  0  0  0  0  0  0  0
    1.7360   -0.0000    0.0000 C   0  0  1  0  0  0  0  0  0  0  0  0
    0.8680    0.5079    0.0000 C   0  0  0  0  0  0  0  0  0  0  0  0
    0.8680    1.5079    0.0000 C   0  0  0  0  0  0  0  0  0  0  0  0
    0.0020    2.0079    0.0000 C   0  0  0  0  0  0  0  0  0  0  0  0
    0.0020    3.0079    0.0000 C   0  0  0  0  0  0  0  0  0  0  0  0
    0.8740    3.5079    0.0000 C   0  0  0  0  0  0  0  0  0  0  0  0
    0.8740    4.5080    0.0000 C   0  0  1  0  0  0  0  0  0  0  0  0
    1.7415    5.0054    0.0000 O   0  0  0  0  0  0  0  0  0  0  0  0
    0.0109    5.0130    0.0000 C   0  0  0  0  0  0  0  0  0  0  0  0
   -0.8611    4.5130    0.0000 C   0  0  2  0  0  0  0  0  0  0  0  0
   -1.7241    5.0181    0.0000 O   0  0  0  0  0  0  0  0  0  0  0  0
   -0.8700    3.5079    0.0000 C   0  0  0  0  0  0  0  0  0  0  0  0
   -0.0000   -0.0000    0.0000 C   0  0  0  0  0  0  0  0  0  0  0  0
   -0.0000   -1.0058    0.0000 C   0  0  0  0  0  0  0  0  0  0  0  0
    0.8680   -1.5037    0.0000 C   0  0  0  0  0  0  0  0  0  0  0  0
    1.7360   -1.0071    0.0000 C   0  0  2  0  0  0  0  0  0  0  0  0
    1.8385   -2.0018    0.0000 C   0  0  0  0  0  0  0  0  0  0  0  0
    1.8435    0.9942    0.0000 H   0  0  0  0  0  0  0  0  0  0  0  0
  2  1  1  6  0  0  0
  2  3  1  0  0  0  0
  3  4  2  0  0  0  0
  4  5  1  0  0  0  0
  5  6  1  1  0  0  0
  5  7  1  0  0  0  0
  7  8  1  0  0  0  0
  7  9  1  0  0  0  0
  7 10  1  0  0  0  0
  2 11  1  0  0  0  0
 11 29  1  0  0  0  0
 11 12  1  6  0  0  0
 12 13  1  0  0  0  0
 13 14  1  0  0  0  0
 14 29  1  0  0  0  0
 14 15  1  0  0  0  0
 15 16  2  0  0  0  0
 16 17  1  0  0  0  0
 17 18  2  0  0  0  0
 18 25  1  0  0  0  0
 18 19  1  0  0  0  0
 19 20  1  0  0  0  0
 20 21  1  6  0  0  0
 20 22  1  0  0  0  0
 22 23  1  0  0  0  0
 23 24  1  1  0  0  0
 23 25  1  0  0  0  0
 15 26  1  0  0  0  0
 26 27  1  0  0  0  0
 27 28  1  0  0  0  0
 28 29  1  0  0  0  0
 29 30  1  6  0  0  0
 14 31  1  1  0  0  0
M  END
>  <Name>
Paricalcitol

>  <CAS #>
131918-61-1

>  <human Clearance (mL/min/kg)>
0.89

>  <Primary mechanism (metabolic, biliary or renal)>
metabolic

>  <seqId>
690.0

>  <Code (mechanism and clearance degree index)>
M1

>  < Five M1 and R1 test groups>
M1_3

>  <formamide>
0

>  <prodrug phosphates>
0

>  <VolSurf_V>
1017.0

>  <VolSurf_S>
668.823

>  <VolSurf_R>
1.52058

>  <VolSurf_G>
1.59926

>  <VolSurf_IW1>
0.100569

>  <VolSurf_IW2>
0.296028

>  <VolSurf_IW3>
0.562628

>  <VolSurf_IW4>
0.601039

>  <VolSurf_ID1>
0.0341046

>  <VolSurf_ID2>
0.0527879

>  <VolSurf_ID3>
0.104976

>  <VolSurf_ID4>
0.0999445

>  <VolSurf_HL1>
2.63979

>  <VolSurf_HL2>
2.46734

>  <VolSurf_A>
5.08872

>  <VolSurf_CP>
0.862043

>  <VolSurf_POL>
49.332

>  <VolSurf_MW>
416.636

>  <VolSurf_FLEX>
2.00671

>  <VolSurf_FLEX_RB>
0.154362

>  <VolSurf_NCC>
0.0

>  <VolSurf_LOGP n-Oct>
6.446

>  <VolSurf_LOGP c-Hex>
1.06

>  <VolSurf_PSA>
60.69

>  <VolSurf_HSA>
608.133

>  <VolSurf_PSAR>
0.0907414

>  <VolSurf_PHSAR>
0.0997972

>  <VolSurf_LgD5>
6.446

>  <VolSurf_LgD6>
6.446

>  <VolSurf_LgD7>
6.446

>  <VolSurf_LgD7.5>
6.446

>  <VolSurf_LgD8>
6.446

>  <VolSurf_LgD9>
6.446

>  <VolSurf_LgD10>
6.44597

>  <VolSurf_AUS7.4>
2.0

>  <VolSurf_%FU4>
100.0

>  <VolSurf_%FU5>
100.0

>  <VolSurf_%FU6>
100.0

>  <VolSurf_%FU7>
100.0

>  <VolSurf_%FU8>
99.9999

>  <VolSurf_%FU9>
99.9992

>  <VolSurf_%FU10>
99.9923

>  <ID>
334

>  <MOKAID>
335

>  <Clearance Route>
metabolic

>  <PC1>
6.67817

>  <PC2>
-2.03145

$$$$
Paroxetine
  -OEChem-08301611272D

 24 27  0     1  0  0  0  0  0999 V2000
   -0.0043   -4.0051    0.0000 F   0  0  0  0  0  0  0  0  0  0  0  0
    0.0001   -3.0052    0.0000 C   0  0  0  0  0  0  0  0  0  0  0  0
   -0.8697   -2.5013    0.0000 C   0  0  0  0  0  0  0  0  0  0  0  0
   -0.8653   -1.5013    0.0000 C   0  0  0  0  0  0  0  0  0  0  0  0
   -0.0000   -1.0000    0.0000 C   0  0  0  0  0  0  0  0  0  0  0  0
    0.8698   -1.5039    0.0000 C   0  0  0  0  0  0  0  0  0  0  0  0
    0.8743   -2.5090    0.0000 C   0  0  0  0  0  0  0  0  0  0  0  0
    0.0000    0.0000    0.0000 C   0  0  2  0  0  0  0  0  0  0  0  0
   -0.8675    0.4975    0.0000 C   0  0  0  0  0  0  0  0  0  0  0  0
   -0.8675    1.5027    0.0000 C   0  0  0  0  0  0  0  0  0  0  0  0
    0.0000    2.0104    0.0000 N   0  0  0  0  0  0  0  0  0  0  0  0
    0.8675    1.5027    0.0000 C   0  0  0  0  0  0  0  0  0  0  0  0
    0.8675    0.4975    0.0000 C   0  0  1  0  0  0  0  0  0  0  0  0
    1.7328   -0.0038    0.0000 C   0  0  0  0  0  0  0  0  0  0  0  0
    2.5995    0.4950    0.0000 O   0  0  0  0  0  0  0  0  0  0  0  0
    3.4648   -0.0063    0.0000 C   0  0  0  0  0  0  0  0  0  0  0  0
    3.4605   -1.0121    0.0000 C   0  0  0  0  0  0  0  0  0  0  0  0
    4.3263   -1.5137    0.0000 C   0  0  0  0  0  0  0  0  0  0  0  0
    5.1964   -1.0209    0.0000 C   0  0  0  0  0  0  0  0  0  0  0  0
    6.1529   -1.3364    0.0000 O   0  0  0  0  0  0  0  0  0  0  0  0
    6.7484   -0.5242    0.0000 C   0  0  0  0  0  0  0  0  0  0  0  0
    6.1600    0.2930    0.0000 O   0  0  0  0  0  0  0  0  0  0  0  0
    5.2008   -0.0138    0.0000 C   0  0  0  0  0  0  0  0  0  0  0  0
    4.3351    0.4978    0.0000 C   0  0  0  0  0  0  0  0  0  0  0  0
  1  2  1  0  0  0  0
  2  7  2  0  0  0  0
  2  3  1  0  0  0  0
  3  4  2  0  0  0  0
  4  5  1  0  0  0  0
  5  6  2  0  0  0  0
  6  7  1  0  0  0  0
  8  5  1  6  0  0  0
  8 13  1  0  0  0  0
  8  9  1  0  0  0  0
  9 10  1  0  0  0  0
 10 11  1  0  0  0  0
 11 12  1  0  0  0  0
 12 13  1  0  0  0  0
 13 14  1  1  0  0  0
 14 15  1  0  0  0  0
 15 16  1  0  0  0  0
 16 24  2  0  0  0  0
 16 17  1  0  0  0  0
 17 18  2  0  0  0  0
 18 19  1  0  0  0  0
 19 23  2  0  0  0  0
 19 20  1  0  0  0  0
 20 21  1  0  0  0  0
 21 22  1  0  0  0  0
 22 23  1  0  0  0  0
 23 24  1  0  0  0  0
M  END
>  <Name>
Paroxetine

>  <CAS #>
61869-08-7

>  <human Clearance (mL/min/kg)>
18.0

>  <Primary mechanism (metabolic, biliary or renal)>
metabolic

>  <seqId>
691.0

>  <Code (mechanism and clearance degree index)>
M1

>  < Five M1 and R1 test groups>
M1_3

>  <formamide>
0

>  <prodrug phosphates>
0

>  <VolSurf_V>
733.5

>  <VolSurf_S>
495.99

>  <VolSurf_R>
1.47886

>  <VolSurf_G>
1.41607

>  <VolSurf_IW1>
0.0279929

>  <VolSurf_IW2>
0.0710395

>  <VolSurf_IW3>
0.123084

>  <VolSurf_IW4>
1.42781

>  <VolSurf_ID1>
0.0189902

>  <VolSurf_ID2>
0.0152965

>  <VolSurf_ID3>
0.0335276

>  <VolSurf_ID4>
0.0452611

>  <VolSurf_HL1>
1.43529

>  <VolSurf_HL2>
0.372197

>  <VolSurf_A>
1.02728

>  <VolSurf_CP>
6.82355

>  <VolSurf_POL>
37.485

>  <VolSurf_MW>
330.373

>  <VolSurf_FLEX>
1.90318

>  <VolSurf_FLEX_RB>
0.475796

>  <VolSurf_NCC>
1.0

>  <VolSurf_LOGP n-Oct>
3.756

>  <VolSurf_LOGP c-Hex>
2.466

>  <VolSurf_PSA>
63.27

>  <VolSurf_HSA>
432.72

>  <VolSurf_PSAR>
0.127563

>  <VolSurf_PHSAR>
0.146215

>  <VolSurf_LgD5>
0.375595

>  <VolSurf_LgD6>
0.520786

>  <VolSurf_LgD7>
1.10473

>  <VolSurf_LgD7.5>
1.54664

>  <VolSurf_LgD8>
2.02178

>  <VolSurf_LgD9>
2.94804

>  <VolSurf_LgD10>
3.56744

>  <VolSurf_AUS7.4>
0.0643104

>  <VolSurf_%FU4>
1.83817E-4

>  <VolSurf_%FU5>
0.00183814

>  <VolSurf_%FU6>
0.0183783

>  <VolSurf_%FU7>
0.18348

>  <VolSurf_%FU8>
1.80499

>  <VolSurf_%FU9>
15.5275

>  <VolSurf_%FU10>
64.7661

>  <ID>
335

>  <MOKAID>
336

>  <Clearance Route>
metabolic

>  <PC1>
1.72412

>  <PC2>
-1.11668

$$$$
Pazufloxacin
  -OEChem-08301611272D

 23 26  0     1  0  0  0  0  0999 V2000
   -0.8675    1.5063    0.0000 C   0  0  0  0  0  0  0  0  0  0  0  0
   -0.5283    2.4491    0.0000 C   0  0  0  0  0  0  0  0  0  0  0  0
   -1.5127    2.2728    0.0000 C   0  0  0  0  0  0  0  0  0  0  0  0
    0.0000    1.0089    0.0000 C   0  0  0  0  0  0  0  0  0  0  0  0
    0.0000    0.0000    0.0000 C   0  0  0  0  0  0  0  0  0  0  0  0
    0.8707   -0.4993    0.0000 C   0  0  0  0  0  0  0  0  0  0  0  0
    1.7371    0.0000    0.0000 C   0  0  0  0  0  0  0  0  0  0  0  0
    2.6039   -0.5053    0.0000 C   0  0  0  0  0  0  0  0  0  0  0  0
    2.5983   -1.5053    0.0000 O   0  0  0  0  0  0  0  0  0  0  0  0
    3.4805   -0.0074    0.0000 C   0  0  0  0  0  0  0  0  0  0  0  0
    3.4848    1.0014    0.0000 C   0  0  0  0  0  0  0  0  0  0  0  0
    2.6132    1.4980    0.0000 N   0  0  0  0  0  0  0  0  0  0  0  0
    2.6262    2.5061    0.0000 C   0  0  2  0  0  0  0  0  0  0  0  0
    1.7576    3.0193    0.0000 C   0  0  0  0  0  0  0  0  0  0  0  0
    0.8761    2.5245    0.0000 O   0  0  0  0  0  0  0  0  0  0  0  0
    0.8707    1.5185    0.0000 C   0  0  0  0  0  0  0  0  0  0  0  0
    1.7393    1.0052    0.0000 C   0  0  0  0  0  0  0  0  0  0  0  0
    3.4979    2.9961    0.0000 C   0  0  0  0  0  0  0  0  0  0  0  0
    4.3437   -0.5123    0.0000 C   0  0  0  0  0  0  0  0  0  0  0  0
    5.2125   -0.0172    0.0000 O   0  0  0  0  0  0  0  0  0  0  0  0
    4.3380   -1.5123    0.0000 O   0  0  0  0  0  0  0  0  0  0  0  0
   -0.8653   -0.5013    0.0000 F   0  0  0  0  0  0  0  0  0  0  0  0
   -1.5086    0.7389    0.0000 N   0  0  0  0  0  0  0  0  0  0  0  0
  1  3  1  0  0  0  0
  1  2  1  0  0  0  0
  2  3  1  0  0  0  0
  1  4  1  0  0  0  0
  4 16  2  0  0  0  0
  4  5  1  0  0  0  0
  5  6  2  0  0  0  0
  6  7  1  0  0  0  0
  7 17  2  0  0  0  0
  7  8  1  0  0  0  0
  8  9  2  0  0  0  0
  8 10  1  0  0  0  0
 10 11  2  0  0  0  0
 11 12  1  0  0  0  0
 12 17  1  0  0  0  0
 12 13  1  0  0  0  0
 13 14  1  0  0  0  0
 14 15  1  0  0  0  0
 15 16  1  0  0  0  0
 16 17  1  0  0  0  0
 13 18  1  6  0  0  0
 10 19  1  0  0  0  0
 19 20  1  0  0  0  0
 19 21  2  0  0  0  0
  5 22  1  0  0  0  0
  1 23  1  0  0  0  0
M  END
>  <Name>
Pazufloxacin

>  <CAS #>
127045-41-4

>  <human Clearance (mL/min/kg)>
4.87

>  <Primary mechanism (metabolic, biliary or renal)>
renal

>  <seqId>
694.0

>  <Code (mechanism and clearance degree index)>
R1

>  < Five M1 and R1 test groups>
R1_4

>  <formamide>
0

>  <prodrug phosphates>
0

>  <VolSurf_V>
627.0

>  <VolSurf_S>
425.944

>  <VolSurf_R>
1.47203

>  <VolSurf_G>
1.31836

>  <VolSurf_IW1>
0.0982475

>  <VolSurf_IW2>
0.192999

>  <VolSurf_IW3>
0.427551

>  <VolSurf_IW4>
0.607984

>  <VolSurf_ID1>
0.0488501

>  <VolSurf_ID2>
0.0469005

>  <VolSurf_ID3>
0.0998418

>  <VolSurf_ID4>
0.0835508

>  <VolSurf_HL1>
8.86957

>  <VolSurf_HL2>
6.90566

>  <VolSurf_A>
2.38828

>  <VolSurf_CP>
0.608888

>  <VolSurf_POL>
30.578

>  <VolSurf_MW>
318.3

>  <VolSurf_FLEX>
0.272824

>  <VolSurf_FLEX_RB>
0.0682061

>  <VolSurf_NCC>
2.0

>  <VolSurf_LOGP n-Oct>
1.61

>  <VolSurf_LOGP c-Hex>
-0.998

>  <VolSurf_PSA>
117.64

>  <VolSurf_HSA>
308.304

>  <VolSurf_PSAR>
0.276187

>  <VolSurf_PHSAR>
0.381572

>  <VolSurf_LgD5>
-1.56709

>  <VolSurf_LgD6>
-1.01152

>  <VolSurf_LgD7>
-0.807227

>  <VolSurf_LgD7.5>
-0.895328

>  <VolSurf_LgD8>
-1.06885

>  <VolSurf_LgD9>
-1.33002

>  <VolSurf_LgD10>
-1.38252

>  <VolSurf_AUS7.4>
0.0

>  <VolSurf_%FU4>
0.0

>  <VolSurf_%FU5>
0.0

>  <VolSurf_%FU6>
0.0

>  <VolSurf_%FU7>
0.0

>  <VolSurf_%FU8>
0.0

>  <VolSurf_%FU9>
0.0

>  <VolSurf_%FU10>
0.0

>  <ID>
336

>  <MOKAID>
337

>  <Clearance Route>
renal

>  <PC1>
-1.15677

>  <PC2>
1.4421700000000002

$$$$
Pedelsine
  -OEChem-08301611272D

 18 20  0     0  0  0  0  0  0999 V2000
   -0.9578    0.3113    0.0000 C   0  0  0  0  0  0  0  0  0  0  0  0
    0.0000    0.0000    0.0000 C   0  0  0  0  0  0  0  0  0  0  0  0
    0.3090   -0.9511    0.0000 C   0  0  0  0  0  0  0  0  0  0  0  0
    1.2871   -1.1590    0.0000 C   0  0  0  0  0  0  0  0  0  0  0  0
    1.9574   -0.4169    0.0000 C   0  0  0  0  0  0  0  0  0  0  0  0
    2.9364   -0.6206    0.0000 C   0  0  0  0  0  0  0  0  0  0  0  0
    3.2484   -1.5761    0.0000 C   0  0  0  0  0  0  0  0  0  0  0  0
    2.5813   -2.3280    0.0000 N   0  0  0  0  0  0  0  0  0  0  0  0
    1.5991   -2.1146    0.0000 C   0  0  0  0  0  0  0  0  0  0  0  0
    0.5920    0.8148    0.0000 C   0  0  0  0  0  0  0  0  0  0  0  0
   -0.0000    1.6294    0.0000 N   0  0  0  0  0  0  0  0  0  0  0  0
   -0.9578    1.3184    0.0000 C   0  0  0  0  0  0  0  0  0  0  0  0
   -1.8258    1.8263    0.0000 C   0  0  0  0  0  0  0  0  0  0  0  0
   -2.6938    1.3184    0.0000 N   0  0  0  0  0  0  0  0  0  0  0  0
   -2.6938    0.3126    0.0000 C   0  0  0  0  0  0  0  0  0  0  0  0
   -1.8258   -0.1853    0.0000 N   0  0  0  0  0  0  0  0  0  0  0  0
   -3.5591   -0.1886    0.0000 N   0  0  0  0  0  0  0  0  0  0  0  0
   -1.8258    2.8263    0.0000 O   0  0  0  0  0  0  0  0  0  0  0  0
  1 12  2  0  0  0  0
  1 16  1  0  0  0  0
  1  2  1  0  0  0  0
  2  3  1  0  0  0  0
  3  4  1  0  0  0  0
  4  9  2  0  0  0  0
  4  5  1  0  0  0  0
  5  6  2  0  0  0  0
  6  7  1  0  0  0  0
  7  8  2  0  0  0  0
  8  9  1  0  0  0  0
  2 10  2  0  0  0  0
 10 11  1  0  0  0  0
 11 12  1  0  0  0  0
 12 13  1  0  0  0  0
 13 14  1  0  0  0  0
 14 15  1  0  0  0  0
 15 16  2  0  0  0  0
 15 17  1  0  0  0  0
 13 18  2  0  0  0  0
M  END
>  <Name>
Pedelsine

>  <CAS #>
133432-71-0

>  <human Clearance (mL/min/kg)>
6.2

>  <Primary mechanism (metabolic, biliary or renal)>
renal

>  <seqId>
695.0

>  <Code (mechanism and clearance degree index)>
R1

>  < Five M1 and R1 test groups>
R1_2

>  <formamide>
0

>  <prodrug phosphates>
0

>  <VolSurf_V>
521.125

>  <VolSurf_S>
382.902

>  <VolSurf_R>
1.36099

>  <VolSurf_G>
1.35196

>  <VolSurf_IW1>
0.114808

>  <VolSurf_IW2>
0.273981

>  <VolSurf_IW3>
0.630739

>  <VolSurf_IW4>
1.02528

>  <VolSurf_ID1>
0.0445023

>  <VolSurf_ID2>
0.00590988

>  <VolSurf_ID3>
0.0467409

>  <VolSurf_ID4>
0.0818262

>  <VolSurf_HL1>
1.5125

>  <VolSurf_HL2>
1.19547

>  <VolSurf_A>
2.32912

>  <VolSurf_CP>
30.0699

>  <VolSurf_POL>
25.798

>  <VolSurf_MW>
241.249

>  <VolSurf_FLEX>
0.911483

>  <VolSurf_FLEX_RB>
0.303828

>  <VolSurf_NCC>
0.0

>  <VolSurf_LOGP n-Oct>
-0.383

>  <VolSurf_LOGP c-Hex>
-2.386

>  <VolSurf_PSA>
92.41

>  <VolSurf_HSA>
290.492

>  <VolSurf_PSAR>
0.241341

>  <VolSurf_PHSAR>
0.318116

>  <VolSurf_LgD5>
-0.598108

>  <VolSurf_LgD6>
-0.40984

>  <VolSurf_LgD7>
-0.385786

>  <VolSurf_LgD7.5>
-0.383962

>  <VolSurf_LgD8>
-0.383554

>  <VolSurf_LgD9>
-0.385796

>  <VolSurf_LgD10>
-0.409925

>  <VolSurf_AUS7.4>
2.0

>  <VolSurf_%FU4>
12.8524

>  <VolSurf_%FU5>
60.9263

>  <VolSurf_%FU6>
94.0051

>  <VolSurf_%FU7>
99.3604

>  <VolSurf_%FU8>
99.8725

>  <VolSurf_%FU9>
99.358

>  <VolSurf_%FU10>
93.9867

>  <ID>
337

>  <MOKAID>
338

>  <Clearance Route>
metabolic

>  <PC1>
2.69789

>  <PC2>
2.02785

$$$$
Pelrinone
  -OEChem-08301611272D

 18 19  0     0  0  0  0  0  0999 V2000
    1.7313   -1.0038    0.0000 N   0  0  0  0  0  0  0  0  0  0  0  0
    1.7328   -0.0038    0.0000 C   0  0  0  0  0  0  0  0  0  0  0  0
    0.8675    0.4975    0.0000 C   0  0  0  0  0  0  0  0  0  0  0  0
    0.0000    0.0000    0.0000 C   0  0  0  0  0  0  0  0  0  0  0  0
   -0.8675    0.4975    0.0000 C   0  0  0  0  0  0  0  0  0  0  0  0
   -0.8675    1.5027    0.0000 C   0  0  0  0  0  0  0  0  0  0  0  0
    0.0000    2.0104    0.0000 N   0  0  0  0  0  0  0  0  0  0  0  0
    0.8675    1.5027    0.0000 C   0  0  0  0  0  0  0  0  0  0  0  0
    2.5966   -1.5050    0.0000 C   0  0  0  0  0  0  0  0  0  0  0  0
    2.5922   -2.5102    0.0000 C   0  0  0  0  0  0  0  0  0  0  0  0
    1.7247   -3.0076    0.0000 C   0  0  0  0  0  0  0  0  0  0  0  0
    0.8572   -3.5051    0.0000 N   0  0  0  0  0  0  0  0  0  0  0  0
    3.4575   -3.0115    0.0000 C   0  0  0  0  0  0  0  0  0  0  0  0
    4.3272   -2.5178    0.0000 N   0  0  0  0  0  0  0  0  0  0  0  0
    4.3316   -1.5126    0.0000 C   0  0  0  0  0  0  0  0  0  0  0  0
    5.2013   -1.0190    0.0000 C   0  0  0  0  0  0  0  0  0  0  0  0
    3.4664   -1.0011    0.0000 N   0  0  0  0  0  0  0  0  0  0  0  0
    3.4531   -4.0115    0.0000 O   0  0  0  0  0  0  0  0  0  0  0  0
  1  2  1  0  0  0  0
  2  3  1  0  0  0  0
  3  8  2  0  0  0  0
  3  4  1  0  0  0  0
  4  5  2  0  0  0  0
  5  6  1  0  0  0  0
  6  7  2  0  0  0  0
  7  8  1  0  0  0  0
  1  9  1  0  0  0  0
  9 17  1  0  0  0  0
  9 10  2  0  0  0  0
 10 11  1  0  0  0  0
 11 12  3  0  0  0  0
 10 13  1  0  0  0  0
 13 14  1  0  0  0  0
 14 15  2  0  0  0  0
 15 16  1  0  0  0  0
 15 17  1  0  0  0  0
 13 18  2  0  0  0  0
M  END
>  <Name>
Pelrinone

>  <CAS #>
94386-65-9

>  <human Clearance (mL/min/kg)>
5.8

>  <Primary mechanism (metabolic, biliary or renal)>
renal

>  <seqId>
697.0

>  <Code (mechanism and clearance degree index)>
R1

>  < Five M1 and R1 test groups>
R1_4

>  <formamide>
0

>  <prodrug phosphates>
0

>  <VolSurf_V>
556.75

>  <VolSurf_S>
396.474

>  <VolSurf_R>
1.40425

>  <VolSurf_G>
1.33332

>  <VolSurf_IW1>
0.08782

>  <VolSurf_IW2>
0.210607

>  <VolSurf_IW3>
0.549029

>  <VolSurf_IW4>
1.25129

>  <VolSurf_ID1>
0.0324028

>  <VolSurf_ID2>
0.0169482

>  <VolSurf_ID3>
0.0162493

>  <VolSurf_ID4>
0.0268036

>  <VolSurf_HL1>
1.62659

>  <VolSurf_HL2>
1.04545

>  <VolSurf_A>
2.44722

>  <VolSurf_CP>
9.91999

>  <VolSurf_POL>
25.304

>  <VolSurf_MW>
241.249

>  <VolSurf_FLEX>
1.507

>  <VolSurf_FLEX_RB>
0.3014

>  <VolSurf_NCC>
0.0

>  <VolSurf_LOGP n-Oct>
-0.745

>  <VolSurf_LOGP c-Hex>
-4.199

>  <VolSurf_PSA>
90.18

>  <VolSurf_HSA>
306.294

>  <VolSurf_PSAR>
0.227455

>  <VolSurf_PHSAR>
0.294423

>  <VolSurf_LgD5>
-1.80371

>  <VolSurf_LgD6>
-1.05448

>  <VolSurf_LgD7>
-0.795015

>  <VolSurf_LgD7.5>
-0.782793

>  <VolSurf_LgD8>
-0.822081

>  <VolSurf_LgD9>
-1.19809

>  <VolSurf_LgD10>
-2.03009

>  <VolSurf_AUS7.4>
1.96687

>  <VolSurf_%FU4>
0.860542

>  <VolSurf_%FU5>
8.70698

>  <VolSurf_%FU6>
49.0204

>  <VolSurf_%FU7>
89.1186

>  <VolSurf_%FU8>
83.7322

>  <VolSurf_%FU9>
35.209

>  <VolSurf_%FU10>
5.15688

>  <ID>
338

>  <MOKAID>
339

>  <Clearance Route>
uncertain

>  <PC1>
0.643091

>  <PC2>
1.49957

$$$$
Pemetrexed
  -OEChem-08301611272D

 31 33  0     1  0  0  0  0  0999 V2000
   -0.9578   -0.3110    0.0000 C   0  0  0  0  0  0  0  0  0  0  0  0
    0.0000    0.0000    0.0000 C   0  0  0  0  0  0  0  0  0  0  0  0
    0.5920   -0.8146    0.0000 C   0  0  0  0  0  0  0  0  0  0  0  0
   -0.0000   -1.6294    0.0000 N   0  0  0  0  0  0  0  0  0  0  0  0
   -0.9578   -1.3181    0.0000 C   0  0  0  0  0  0  0  0  0  0  0  0
   -1.8258   -1.8147    0.0000 N   0  0  0  0  0  0  0  0  0  0  0  0
   -2.6938   -1.3168    0.0000 C   0  0  0  0  0  0  0  0  0  0  0  0
   -3.5591   -1.8180    0.0000 N   0  0  0  0  0  0  0  0  0  0  0  0
   -2.6938   -0.3110    0.0000 N   0  0  0  0  0  0  0  0  0  0  0  0
   -1.8258    0.1969    0.0000 C   0  0  0  0  0  0  0  0  0  0  0  0
   -1.8258    1.1969    0.0000 O   0  0  0  0  0  0  0  0  0  0  0  0
    0.3090    0.9510    0.0000 C   0  0  0  0  0  0  0  0  0  0  0  0
   -0.3601    1.6942    0.0000 C   0  0  0  0  0  0  0  0  0  0  0  0
   -0.0510    2.6453    0.0000 C   0  0  0  0  0  0  0  0  0  0  0  0
   -0.7258    3.3903    0.0000 C   0  0  0  0  0  0  0  0  0  0  0  0
   -0.4168    4.3414    0.0000 C   0  0  0  0  0  0  0  0  0  0  0  0
    0.5602    4.5550    0.0000 C   0  0  0  0  0  0  0  0  0  0  0  0
    0.8650    5.5074    0.0000 C   0  0  0  0  0  0  0  0  0  0  0  0
    0.1927    6.2476    0.0000 N   0  0  0  0  0  0  0  0  0  0  0  0
    0.4975    7.2000    0.0000 C   0  0  2  0  0  0  0  0  0  0  0  0
   -0.1748    7.9402    0.0000 C   0  0  0  0  0  0  0  0  0  0  0  0
   -1.1521    7.7280    0.0000 C   0  0  0  0  0  0  0  0  0  0  0  0
   -1.8244    8.4683    0.0000 C   0  0  0  0  0  0  0  0  0  0  0  0
   -1.5196    9.4207    0.0000 O   0  0  0  0  0  0  0  0  0  0  0  0
   -2.8017    8.2561    0.0000 O   0  0  0  0  0  0  0  0  0  0  0  0
    1.4748    7.4122    0.0000 C   0  0  0  0  0  0  0  0  0  0  0  0
    2.1471    6.6720    0.0000 O   0  0  0  0  0  0  0  0  0  0  0  0
    1.7796    8.3646    0.0000 O   0  0  0  0  0  0  0  0  0  0  0  0
    1.8423    5.7196    0.0000 O   0  0  0  0  0  0  0  0  0  0  0  0
    1.2350    3.8100    0.0000 C   0  0  0  0  0  0  0  0  0  0  0  0
    0.9328    2.8513    0.0000 C   0  0  0  0  0  0  0  0  0  0  0  0
  1  5  2  0  0  0  0
  1 10  1  0  0  0  0
  1  2  1  0  0  0  0
  2  3  2  0  0  0  0
  3  4  1  0  0  0  0
  4  5  1  0  0  0  0
  5  6  1  0  0  0  0
  6  7  2  0  0  0  0
  7  8  1  0  0  0  0
  7  9  1  0  0  0  0
  9 10  1  0  0  0  0
 10 11  2  0  0  0  0
  2 12  1  0  0  0  0
 12 13  1  0  0  0  0
 13 14  1  0  0  0  0
 14 31  2  0  0  0  0
 14 15  1  0  0  0  0
 15 16  2  0  0  0  0
 16 17  1  0  0  0  0
 17 18  1  0  0  0  0
 18 19  1  0  0  0  0
 19 20  1  0  0  0  0
 20 21  1  6  0  0  0
 21 22  1  0  0  0  0
 22 23  1  0  0  0  0
 23 24  2  0  0  0  0
 23 25  1  0  0  0  0
 20 26  1  0  0  0  0
 26 27  2  0  0  0  0
 26 28  1  0  0  0  0
 18 29  2  0  0  0  0
 17 30  2  0  0  0  0
 30 31  1  0  0  0  0
M  END
>  <Name>
Pemetrexed

>  <CAS #>
137281-23-3

>  <human Clearance (mL/min/kg)>
1.3

>  <Primary mechanism (metabolic, biliary or renal)>
renal

>  <seqId>
698.0

>  <Code (mechanism and clearance degree index)>
R1

>  < Five M1 and R1 test groups>
R1_4

>  <formamide>
0

>  <prodrug phosphates>
0

>  <VolSurf_V>
864.625

>  <VolSurf_S>
592.532

>  <VolSurf_R>
1.4592

>  <VolSurf_G>
1.56861

>  <VolSurf_IW1>
0.065907

>  <VolSurf_IW2>
0.142305

>  <VolSurf_IW3>
0.412618

>  <VolSurf_IW4>
0.812302

>  <VolSurf_ID1>
0.103623

>  <VolSurf_ID2>
0.186624

>  <VolSurf_ID3>
0.257465

>  <VolSurf_ID4>
0.347422

>  <VolSurf_HL1>
5.46867

>  <VolSurf_HL2>
4.76

>  <VolSurf_A>
6.96321

>  <VolSurf_CP>
0.217687

>  <VolSurf_POL>
40.856

>  <VolSurf_MW>
425.395

>  <VolSurf_FLEX>
3.89373

>  <VolSurf_FLEX_RB>
0.353976

>  <VolSurf_NCC>
2.0

>  <VolSurf_LOGP n-Oct>
-0.03

>  <VolSurf_LOGP c-Hex>
-6.42

>  <VolSurf_PSA>
201.12

>  <VolSurf_HSA>
391.412

>  <VolSurf_PSAR>
0.339425

>  <VolSurf_PHSAR>
0.513832

>  <VolSurf_LgD5>
-1.67862

>  <VolSurf_LgD6>
-3.36568

>  <VolSurf_LgD7>
-5.05898

>  <VolSurf_LgD7.5>
-5.70686

>  <VolSurf_LgD8>
-6.18646

>  <VolSurf_LgD9>
-6.55402

>  <VolSurf_LgD10>
-6.47732

>  <VolSurf_AUS7.4>
0.0

>  <VolSurf_%FU4>
28.2396

>  <VolSurf_%FU5>
2.2234

>  <VolSurf_%FU6>
0.0419195

>  <VolSurf_%FU7>
4.55681E-4

>  <VolSurf_%FU8>
4.37143E-6

>  <VolSurf_%FU9>
2.92585E-8

>  <VolSurf_%FU10>
6.77569E-11

>  <ID>
339

>  <MOKAID>
340

>  <Clearance Route>
renal

>  <PC1>
-4.83196

>  <PC2>
-0.0506175

$$$$
Penciclovir
  -OEChem-08301611272D

 18 19  0     0  0  0  0  0  0999 V2000
   -1.7333   -2.0149    0.0000 N   0  0  0  0  0  0  0  0  0  0  0  0
   -0.8680   -1.5137    0.0000 C   0  0  0  0  0  0  0  0  0  0  0  0
   -0.8680   -0.5079    0.0000 N   0  0  0  0  0  0  0  0  0  0  0  0
    0.0000    0.0000    0.0000 C   0  0  0  0  0  0  0  0  0  0  0  0
   -0.0000    1.0000    0.0000 O   0  0  0  0  0  0  0  0  0  0  0  0
    0.8680   -0.5079    0.0000 C   0  0  0  0  0  0  0  0  0  0  0  0
    1.8258   -0.1969    0.0000 N   0  0  0  0  0  0  0  0  0  0  0  0
    2.4178   -1.0115    0.0000 C   0  0  0  0  0  0  0  0  0  0  0  0
    1.8258   -1.8263    0.0000 N   0  0  0  0  0  0  0  0  0  0  0  0
    2.1348   -2.7774    0.0000 C   0  0  0  0  0  0  0  0  0  0  0  0
    3.1129   -2.9853    0.0000 C   0  0  0  0  0  0  0  0  0  0  0  0
    3.4219   -3.9364    0.0000 C   0  0  0  0  0  0  0  0  0  0  0  0
    4.4000   -4.1444    0.0000 C   0  0  0  0  0  0  0  0  0  0  0  0
    5.0692   -3.4012    0.0000 O   0  0  0  0  0  0  0  0  0  0  0  0
    2.7527   -4.6795    0.0000 C   0  0  0  0  0  0  0  0  0  0  0  0
    3.0617   -5.6306    0.0000 O   0  0  0  0  0  0  0  0  0  0  0  0
    0.8680   -1.5150    0.0000 C   0  0  0  0  0  0  0  0  0  0  0  0
    0.0000   -2.0116    0.0000 N   0  0  0  0  0  0  0  0  0  0  0  0
  1  2  1  0  0  0  0
  2 18  1  0  0  0  0
  2  3  2  0  0  0  0
  3  4  1  0  0  0  0
  4  5  2  0  0  0  0
  4  6  1  0  0  0  0
  6 17  2  0  0  0  0
  6  7  1  0  0  0  0
  7  8  2  0  0  0  0
  8  9  1  0  0  0  0
  9 10  1  0  0  0  0
 10 11  1  0  0  0  0
 11 12  1  0  0  0  0
 12 13  1  0  0  0  0
 13 14  1  0  0  0  0
 12 15  1  0  0  0  0
 15 16  1  0  0  0  0
  9 17  1  0  0  0  0
 17 18  1  0  0  0  0
M  END
>  <Name>
Penciclovir

>  <CAS #>
39809-25-1

>  <human Clearance (mL/min/kg)>
8.4

>  <Primary mechanism (metabolic, biliary or renal)>
renal

>  <seqId>
699.0

>  <Code (mechanism and clearance degree index)>
R1

>  < Five M1 and R1 test groups>
R1_2

>  <formamide>
0

>  <prodrug phosphates>
0

>  <VolSurf_V>
526.625

>  <VolSurf_S>
384.089

>  <VolSurf_R>
1.3711

>  <VolSurf_G>
1.34406

>  <VolSurf_IW1>
0.0455161

>  <VolSurf_IW2>
0.0916048

>  <VolSurf_IW3>
0.233749

>  <VolSurf_IW4>
1.04131

>  <VolSurf_ID1>
0.11674

>  <VolSurf_ID2>
0.190269

>  <VolSurf_ID3>
0.24772

>  <VolSurf_ID4>
0.285966

>  <VolSurf_HL1>
4.81395

>  <VolSurf_HL2>
3.1234

>  <VolSurf_A>
2.23674

>  <VolSurf_CP>
0.394149

>  <VolSurf_POL>
24.752

>  <VolSurf_MW>
253.258

>  <VolSurf_FLEX>
1.40891

>  <VolSurf_FLEX_RB>
0.176114

>  <VolSurf_NCC>
0.0

>  <VolSurf_LOGP n-Oct>
-1.575

>  <VolSurf_LOGP c-Hex>
-8.736

>  <VolSurf_PSA>
123.85

>  <VolSurf_HSA>
260.239

>  <VolSurf_PSAR>
0.322452

>  <VolSurf_PHSAR>
0.475909

>  <VolSurf_LgD5>
-1.75047

>  <VolSurf_LgD6>
-1.59701

>  <VolSurf_LgD7>
-1.59225

>  <VolSurf_LgD7.5>
-1.62203

>  <VolSurf_LgD8>
-1.70767

>  <VolSurf_LgD9>
-2.23445

>  <VolSurf_LgD10>
-3.13554

>  <VolSurf_AUS7.4>
1.96525

>  <VolSurf_%FU4>
13.6706

>  <VolSurf_%FU5>
66.7517

>  <VolSurf_%FU6>
95.0566

>  <VolSurf_%FU7>
96.1053

>  <VolSurf_%FU8>
73.6679

>  <VolSurf_%FU9>
21.8806

>  <VolSurf_%FU10>
2.72013

>  <ID>
340

>  <MOKAID>
341

>  <Clearance Route>
renal

>  <PC1>
-1.69442

>  <PC2>
2.8698200000000003

$$$$
Penicillin G
  -OEChem-08301611272D

 24 26  0     1  0  0  0  0  0999 V2000
    3.2824    0.1689    0.0000 C   0  0  0  0  0  0  0  0  0  0  0  0
    2.5392   -0.5002    0.0000 C   0  0  0  0  0  0  0  0  0  0  0  0
    3.2822   -1.1694    0.0000 C   0  0  0  0  0  0  0  0  0  0  0  0
    1.9514    0.3089    0.0000 S   0  0  0  0  0  0  0  0  0  0  0  0
    1.0001    0.0000    0.0000 C   0  0  2  0  0  0  0  0  0  0  0  0
    0.0000    0.0000    0.0000 C   0  0  2  0  0  0  0  0  0  0  0  0
   -0.7071    0.7071    0.0000 N   0  0  0  0  0  0  0  0  0  0  0  0
   -1.6730    0.4483    0.0000 C   0  0  0  0  0  0  0  0  0  0  0  0
   -1.9319   -0.5176    0.0000 O   0  0  0  0  0  0  0  0  0  0  0  0
   -2.3801    1.1554    0.0000 C   0  0  0  0  0  0  0  0  0  0  0  0
   -3.3461    0.8966    0.0000 C   0  0  0  0  0  0  0  0  0  0  0  0
   -3.6034   -0.0751    0.0000 C   0  0  0  0  0  0  0  0  0  0  0  0
   -4.5693   -0.3340    0.0000 C   0  0  0  0  0  0  0  0  0  0  0  0
   -5.2806    0.3690    0.0000 C   0  0  0  0  0  0  0  0  0  0  0  0
   -5.0233    1.3407    0.0000 C   0  0  0  0  0  0  0  0  0  0  0  0
   -4.0547    1.6094    0.0000 C   0  0  0  0  0  0  0  0  0  0  0  0
   -0.0000   -1.0001    0.0000 C   0  0  0  0  0  0  0  0  0  0  0  0
   -0.7071   -1.7072    0.0000 O   0  0  0  0  0  0  0  0  0  0  0  0
    1.0000   -1.0001    0.0000 N   0  0  0  0  0  0  0  0  0  0  0  0
    1.9511   -1.3093    0.0000 C   0  0  1  0  0  0  0  0  0  0  0  0
    2.2599   -2.2604    0.0000 C   0  0  0  0  0  0  0  0  0  0  0  0
    1.5907   -3.0034    0.0000 O   0  0  0  0  0  0  0  0  0  0  0  0
    3.2381   -2.4685    0.0000 O   0  0  0  0  0  0  0  0  0  0  0  0
    0.8438    0.9877    0.0000 H   0  0  0  0  0  0  0  0  0  0  0  0
  1  2  1  0  0  0  0
  2 20  1  0  0  0  0
  2  3  1  0  0  0  0
  2  4  1  0  0  0  0
  4  5  1  0  0  0  0
  5 19  1  0  0  0  0
  5  6  1  0  0  0  0
  6  7  1  1  0  0  0
  7  8  1  0  0  0  0
  8  9  2  0  0  0  0
  8 10  1  0  0  0  0
 10 11  1  0  0  0  0
 11 16  2  0  0  0  0
 11 12  1  0  0  0  0
 12 13  2  0  0  0  0
 13 14  1  0  0  0  0
 14 15  2  0  0  0  0
 15 16  1  0  0  0  0
  6 17  1  0  0  0  0
 17 18  2  0  0  0  0
 17 19  1  0  0  0  0
 19 20  1  0  0  0  0
 20 21  1  6  0  0  0
 21 22  2  0  0  0  0
 21 23  1  0  0  0  0
  5 24  1  6  0  0  0
M  END
>  <Name>
Penicillin G

>  <CAS #>
61-33-6

>  <human Clearance (mL/min/kg)>
6.9

>  <Primary mechanism (metabolic, biliary or renal)>
metabolic

>  <seqId>
701.0

>  <Code (mechanism and clearance degree index)>
R1

>  < Five M1 and R1 test groups>
R1_1

>  <formamide>
0

>  <prodrug phosphates>
0

>  <VolSurf_V>
717.125

>  <VolSurf_S>
497.628

>  <VolSurf_R>
1.44109

>  <VolSurf_G>
1.45558

>  <VolSurf_IW1>
0.129318

>  <VolSurf_IW2>
0.350528

>  <VolSurf_IW3>
0.758582

>  <VolSurf_IW4>
1.06189

>  <VolSurf_ID1>
0.0900959

>  <VolSurf_ID2>
0.233295

>  <VolSurf_ID3>
0.408235

>  <VolSurf_ID4>
0.542219

>  <VolSurf_HL1>
6.65537

>  <VolSurf_HL2>
9.31081

>  <VolSurf_A>
9.39377

>  <VolSurf_CP>
0.11233

>  <VolSurf_POL>
32.596

>  <VolSurf_MW>
333.382

>  <VolSurf_FLEX>
1.40822

>  <VolSurf_FLEX_RB>
0.234703

>  <VolSurf_NCC>
1.0

>  <VolSurf_LOGP n-Oct>
1.984

>  <VolSurf_LOGP c-Hex>
-1.302

>  <VolSurf_PSA>
107.07

>  <VolSurf_HSA>
390.557

>  <VolSurf_PSAR>
0.215161

>  <VolSurf_PHSAR>
0.274147

>  <VolSurf_LgD5>
-0.226284

>  <VolSurf_LgD6>
-1.00533

>  <VolSurf_LgD7>
-1.30992

>  <VolSurf_LgD7.5>
-1.34485

>  <VolSurf_LgD8>
-1.3565

>  <VolSurf_LgD9>
-1.36145

>  <VolSurf_LgD10>
-1.36197

>  <VolSurf_AUS7.4>
0.0

>  <VolSurf_%FU4>
5.43424

>  <VolSurf_%FU5>
0.571368

>  <VolSurf_%FU6>
0.0574322

>  <VolSurf_%FU7>
0.00574619

>  <VolSurf_%FU8>
5.74648E-4

>  <VolSurf_%FU9>
5.74647E-5

>  <VolSurf_%FU10>
5.74612E-6

>  <ID>
341

>  <MOKAID>
342

>  <Clearance Route>
uncertain

>  <PC1>
-1.05235

>  <PC2>
2.24684

$$$$
Pentamidine
  -OEChem-08301611272D

 25 26  0     0  0  0  0  0  0999 V2000
    2.5995    1.4976    0.0000 N   0  0  0  0  0  0  0  0  0  0  0  0
    1.7350    2.0001    0.0000 C   0  0  0  0  0  0  0  0  0  0  0  0
    1.7379    3.0001    0.0000 N   0  0  0  0  0  0  0  0  0  0  0  0
    0.8675    1.5027    0.0000 C   0  0  0  0  0  0  0  0  0  0  0  0
    0.8675    0.4975    0.0000 C   0  0  0  0  0  0  0  0  0  0  0  0
    0.0000    0.0000    0.0000 C   0  0  0  0  0  0  0  0  0  0  0  0
   -0.8675    0.4975    0.0000 C   0  0  0  0  0  0  0  0  0  0  0  0
   -1.7328   -0.0038    0.0000 O   0  0  0  0  0  0  0  0  0  0  0  0
   -1.7313   -1.0038    0.0000 C   0  0  0  0  0  0  0  0  0  0  0  0
   -2.5966   -1.5050    0.0000 C   0  0  0  0  0  0  0  0  0  0  0  0
   -2.5952   -2.5050    0.0000 C   0  0  0  0  0  0  0  0  0  0  0  0
   -3.4605   -3.0063    0.0000 C   0  0  0  0  0  0  0  0  0  0  0  0
   -3.4590   -4.0063    0.0000 C   0  0  0  0  0  0  0  0  0  0  0  0
   -4.3243   -4.5075    0.0000 O   0  0  0  0  0  0  0  0  0  0  0  0
   -4.3229   -5.5075    0.0000 C   0  0  0  0  0  0  0  0  0  0  0  0
   -3.4502   -6.0063    0.0000 C   0  0  0  0  0  0  0  0  0  0  0  0
   -3.4487   -7.0063    0.0000 C   0  0  0  0  0  0  0  0  0  0  0  0
   -4.3110   -7.5126    0.0000 C   0  0  0  0  0  0  0  0  0  0  0  0
   -5.1838   -7.0139    0.0000 C   0  0  0  0  0  0  0  0  0  0  0  0
   -5.1941   -6.0088    0.0000 C   0  0  0  0  0  0  0  0  0  0  0  0
   -4.3052   -8.5126    0.0000 C   0  0  0  0  0  0  0  0  0  0  0  0
   -5.1683   -9.0177    0.0000 N   0  0  0  0  0  0  0  0  0  0  0  0
   -3.4362   -9.0075    0.0000 N   0  0  0  0  0  0  0  0  0  0  0  0
   -0.8675    1.5027    0.0000 C   0  0  0  0  0  0  0  0  0  0  0  0
    0.0000    2.0104    0.0000 C   0  0  0  0  0  0  0  0  0  0  0  0
  1  2  1  0  0  0  0
  2  3  2  3  0  0  0
  2  4  1  0  0  0  0
  4 25  2  0  0  0  0
  4  5  1  0  0  0  0
  5  6  2  0  0  0  0
  6  7  1  0  0  0  0
  7  8  1  0  0  0  0
  8  9  1  0  0  0  0
  9 10  1  0  0  0  0
 10 11  1  0  0  0  0
 11 12  1  0  0  0  0
 12 13  1  0  0  0  0
 13 14  1  0  0  0  0
 14 15  1  0  0  0  0
 15 20  2  0  0  0  0
 15 16  1  0  0  0  0
 16 17  2  0  0  0  0
 17 18  1  0  0  0  0
 18 19  2  0  0  0  0
 19 20  1  0  0  0  0
 18 21  1  0  0  0  0
 21 22  2  3  0  0  0
 21 23  1  0  0  0  0
  7 24  2  0  0  0  0
 24 25  1  0  0  0  0
M  END
>  <Name>
Pentamidine

>  <CAS #>
100-33-4

>  <human Clearance (mL/min/kg)>
74.0

>  <Primary mechanism (metabolic, biliary or renal)>
metabolic

>  <seqId>
702.0

>  <Code (mechanism and clearance degree index)>
M1

>  < Five M1 and R1 test groups>
M1_4

>  <formamide>
0

>  <prodrug phosphates>
0

>  <VolSurf_V>
822.625

>  <VolSurf_S>
579.969

>  <VolSurf_R>
1.41839

>  <VolSurf_G>
1.59654

>  <VolSurf_IW1>
0.00352121

>  <VolSurf_IW2>
0.0152559

>  <VolSurf_IW3>
0.0461259

>  <VolSurf_IW4>
0.376605

>  <VolSurf_ID1>
0.00963238

>  <VolSurf_ID2>
0.00931588

>  <VolSurf_ID3>
0.0118292

>  <VolSurf_ID4>
0.131166

>  <VolSurf_HL1>
0.970205

>  <VolSurf_HL2>
0.707641

>  <VolSurf_A>
0.100306

>  <VolSurf_CP>
13.0794

>  <VolSurf_POL>
39.025

>  <VolSurf_MW>
342.435

>  <VolSurf_FLEX>
3.29439

>  <VolSurf_FLEX_RB>
0.274533

>  <VolSurf_NCC>
2.0

>  <VolSurf_LOGP n-Oct>
2.499

>  <VolSurf_LOGP c-Hex>
4.838

>  <VolSurf_PSA>
126.94

>  <VolSurf_HSA>
453.029

>  <VolSurf_PSAR>
0.218874

>  <VolSurf_PHSAR>
0.280203

>  <VolSurf_LgD5>
-1.20695

>  <VolSurf_LgD6>
-1.20649

>  <VolSurf_LgD7>
-1.20192

>  <VolSurf_LgD7.5>
-1.19104

>  <VolSurf_LgD8>
-1.15752

>  <VolSurf_LgD9>
-0.808703

>  <VolSurf_LgD10>
0.407247

>  <VolSurf_AUS7.4>
0.0

>  <VolSurf_%FU4>
6.96474E-13

>  <VolSurf_%FU5>
6.96473E-11

>  <VolSurf_%FU6>
6.96463E-9

>  <VolSurf_%FU7>
6.96358E-7

>  <VolSurf_%FU8>
6.95313E-5

>  <VolSurf_%FU9>
0.00684991

>  <VolSurf_%FU10>
0.593294

>  <ID>
342

>  <MOKAID>
343

>  <Clearance Route>
possible billary

>  <PC1>
-0.783257

>  <PC2>
-1.77614

$$$$
Pentoxifylline
  -OEChem-08301611272D

 20 21  0     0  0  0  0  0  0999 V2000
   -0.0006   -3.0116    0.0000 C   0  0  0  0  0  0  0  0  0  0  0  0
    0.0000   -2.0116    0.0000 N   0  0  0  0  0  0  0  0  0  0  0  0
   -0.8680   -1.5137    0.0000 C   0  0  0  0  0  0  0  0  0  0  0  0
   -1.7333   -2.0149    0.0000 O   0  0  0  0  0  0  0  0  0  0  0  0
   -0.8680   -0.5079    0.0000 N   0  0  0  0  0  0  0  0  0  0  0  0
   -1.7355   -0.0104    0.0000 C   0  0  0  0  0  0  0  0  0  0  0  0
   -2.6000   -0.5129    0.0000 C   0  0  0  0  0  0  0  0  0  0  0  0
   -3.4675   -0.0155    0.0000 C   0  0  0  0  0  0  0  0  0  0  0  0
   -4.3321   -0.5180    0.0000 C   0  0  0  0  0  0  0  0  0  0  0  0
   -5.1996   -0.0205    0.0000 C   0  0  0  0  0  0  0  0  0  0  0  0
   -5.2025    0.9795    0.0000 O   0  0  0  0  0  0  0  0  0  0  0  0
   -6.0641   -0.5230    0.0000 C   0  0  0  0  0  0  0  0  0  0  0  0
    0.0000    0.0000    0.0000 C   0  0  0  0  0  0  0  0  0  0  0  0
   -0.0000    1.0000    0.0000 O   0  0  0  0  0  0  0  0  0  0  0  0
    0.8680   -0.5079    0.0000 C   0  0  0  0  0  0  0  0  0  0  0  0
    0.8680   -1.5150    0.0000 C   0  0  0  0  0  0  0  0  0  0  0  0
    1.8258   -1.8263    0.0000 N   0  0  0  0  0  0  0  0  0  0  0  0
    2.4178   -1.0115    0.0000 C   0  0  0  0  0  0  0  0  0  0  0  0
    1.8258   -0.1969    0.0000 N   0  0  0  0  0  0  0  0  0  0  0  0
    2.1348    0.7541    0.0000 C   0  0  0  0  0  0  0  0  0  0  0  0
  1  2  1  0  0  0  0
  2 16  1  0  0  0  0
  2  3  1  0  0  0  0
  3  4  2  0  0  0  0
  3  5  1  0  0  0  0
  5  6  1  0  0  0  0
  6  7  1  0  0  0  0
  7  8  1  0  0  0  0
  8  9  1  0  0  0  0
  9 10  1  0  0  0  0
 10 11  2  0  0  0  0
 10 12  1  0  0  0  0
  5 13  1  0  0  0  0
 13 14  2  0  0  0  0
 13 15  1  0  0  0  0
 15 19  1  0  0  0  0
 15 16  2  0  0  0  0
 16 17  1  0  0  0  0
 17 18  2  0  0  0  0
 18 19  1  0  0  0  0
 19 20  1  0  0  0  0
M  END
>  <Name>
Pentoxifylline

>  <CAS #>
6493-05-6

>  <human Clearance (mL/min/kg)>
39.0

>  <Primary mechanism (metabolic, biliary or renal)>
metabolic

>  <seqId>
706.0

>  <Code (mechanism and clearance degree index)>
M1

>  < Five M1 and R1 test groups>
M1_1

>  <formamide>
0

>  <prodrug phosphates>
0

>  <VolSurf_V>
634.25

>  <VolSurf_S>
441.64

>  <VolSurf_R>
1.43613

>  <VolSurf_G>
1.37599

>  <VolSurf_IW1>
0.0656134

>  <VolSurf_IW2>
0.154175

>  <VolSurf_IW3>
0.353629

>  <VolSurf_IW4>
0.512253

>  <VolSurf_ID1>
0.0470766

>  <VolSurf_ID2>
0.137301

>  <VolSurf_ID3>
0.205981

>  <VolSurf_ID4>
0.273813

>  <VolSurf_HL1>
2.11644

>  <VolSurf_HL2>
1.59016

>  <VolSurf_A>
3.58571

>  <VolSurf_CP>
0.834525

>  <VolSurf_POL>
27.639

>  <VolSurf_MW>
278.307

>  <VolSurf_FLEX>
1.49294

>  <VolSurf_FLEX_RB>
0.186618

>  <VolSurf_NCC>
0.0

>  <VolSurf_LOGP n-Oct>
0.647

>  <VolSurf_LOGP c-Hex>
-2.235

>  <VolSurf_PSA>
72.87

>  <VolSurf_HSA>
368.77

>  <VolSurf_PSAR>
0.164999

>  <VolSurf_PHSAR>
0.197603

>  <VolSurf_LgD5>
0.646727

>  <VolSurf_LgD6>
0.646973

>  <VolSurf_LgD7>
0.646997

>  <VolSurf_LgD7.5>
0.646999

>  <VolSurf_LgD8>
0.647

>  <VolSurf_LgD9>
0.647

>  <VolSurf_LgD10>
0.647

>  <VolSurf_AUS7.4>
2.0

>  <VolSurf_%FU4>
99.3755

>  <VolSurf_%FU5>
99.9372

>  <VolSurf_%FU6>
99.9937

>  <VolSurf_%FU7>
99.9994

>  <VolSurf_%FU8>
99.9999

>  <VolSurf_%FU9>
100.0

>  <VolSurf_%FU10>
100.0

>  <ID>
343

>  <MOKAID>
344

>  <Clearance Route>
metabolic

>  <PC1>
2.30214

>  <PC2>
0.835319

$$$$
Phencyclidine
  -OEChem-08301611272D

 18 20  0     0  0  0  0  0  0999 V2000
    0.0000    0.0000    0.0000 C   0  0  0  0  0  0  0  0  0  0  0  0
   -0.8675    0.4975    0.0000 C   0  0  0  0  0  0  0  0  0  0  0  0
   -0.8675    1.5027    0.0000 C   0  0  0  0  0  0  0  0  0  0  0  0
    0.0000    2.0104    0.0000 N   0  0  0  0  0  0  0  0  0  0  0  0
    0.8675    1.5027    0.0000 C   0  0  0  0  0  0  0  0  0  0  0  0
    0.8675    0.4975    0.0000 C   0  0  0  0  0  0  0  0  0  0  0  0
    0.0000    3.7604    0.0000 C   0  0  0  0  0  0  0  0  0  0  0  0
   -0.3475    4.7036    0.0000 C   0  0  0  0  0  0  0  0  0  0  0  0
    0.2945    5.4704    0.0000 C   0  0  0  0  0  0  0  0  0  0  0  0
    1.2805    5.3034    0.0000 C   0  0  0  0  0  0  0  0  0  0  0  0
    1.6280    4.3602    0.0000 C   0  0  0  0  0  0  0  0  0  0  0  0
    0.9895    3.5839    0.0000 C   0  0  0  0  0  0  0  0  0  0  0  0
   -0.9845    3.5848    0.0000 C   0  0  0  0  0  0  0  0  0  0  0  0
   -1.3236    2.6386    0.0000 C   0  0  0  0  0  0  0  0  0  0  0  0
   -2.3081    2.4629    0.0000 C   0  0  0  0  0  0  0  0  0  0  0  0
   -2.9569    3.2239    0.0000 C   0  0  0  0  0  0  0  0  0  0  0  0
   -2.6177    4.1702    0.0000 C   0  0  0  0  0  0  0  0  0  0  0  0
   -1.6298    4.3554    0.0000 C   0  0  0  0  0  0  0  0  0  0  0  0
  1  6  1  0  0  0  0
  1  2  1  0  0  0  0
  2  3  1  0  0  0  0
  3  4  1  0  0  0  0
  4  5  1  0  0  0  0
  5  6  1  0  0  0  0
  4  7  1  0  0  0  0
  7 12  1  0  0  0  0
  7  8  1  0  0  0  0
  8  9  1  0  0  0  0
  9 10  1  0  0  0  0
 10 11  1  0  0  0  0
 11 12  1  0  0  0  0
  7 13  1  0  0  0  0
 13 18  2  0  0  0  0
 13 14  1  0  0  0  0
 14 15  2  0  0  0  0
 15 16  1  0  0  0  0
 16 17  2  0  0  0  0
 17 18  1  0  0  0  0
M  END
>  <Name>
Phencyclidine

>  <CAS #>
77-10-1

>  <human Clearance (mL/min/kg)>
5.1

>  <Primary mechanism (metabolic, biliary or renal)>
metabolic

>  <seqId>
710.0

>  <Code (mechanism and clearance degree index)>
M1

>  < Five M1 and R1 test groups>
M1_2

>  <formamide>
0

>  <prodrug phosphates>
0

>  <VolSurf_V>
635.125

>  <VolSurf_S>
412.837

>  <VolSurf_R>
1.53844

>  <VolSurf_G>
1.24189

>  <VolSurf_IW1>
0.0100257

>  <VolSurf_IW2>
0.291404

>  <VolSurf_IW3>
0.898115

>  <VolSurf_IW4>
1.1735

>  <VolSurf_ID1>
0.0205513

>  <VolSurf_ID2>
0.0771699

>  <VolSurf_ID3>
0.209964

>  <VolSurf_ID4>
0.28444

>  <VolSurf_HL1>
0.131148

>  <VolSurf_HL2>
0.12069

>  <VolSurf_A>
6.13634

>  <VolSurf_CP>
6.13172

>  <VolSurf_POL>
32.345

>  <VolSurf_MW>
244.395

>  <VolSurf_FLEX>
0.649171

>  <VolSurf_FLEX_RB>
0.324586

>  <VolSurf_NCC>
1.0

>  <VolSurf_LOGP n-Oct>
5.323

>  <VolSurf_LOGP c-Hex>
5.59

>  <VolSurf_PSA>
11.41

>  <VolSurf_HSA>
401.427

>  <VolSurf_PSAR>
0.027638

>  <VolSurf_PHSAR>
0.0284236

>  <VolSurf_LgD5>
1.94184

>  <VolSurf_LgD6>
2.44047

>  <VolSurf_LgD7>
3.33039

>  <VolSurf_LgD7.5>
3.812

>  <VolSurf_LgD8>
4.28127

>  <VolSurf_LgD9>
5.02117

>  <VolSurf_LgD10>
5.28145

>  <VolSurf_AUS7.4>
0.49693

>  <VolSurf_%FU4>
9.95667E-4

>  <VolSurf_%FU5>
0.00995578

>  <VolSurf_%FU6>
0.0994686

>  <VolSurf_%FU7>
0.985861

>  <VolSurf_%FU8>
9.05517

>  <VolSurf_%FU9>
49.8917

>  <VolSurf_%FU10>
90.8732

>  <ID>
344

>  <MOKAID>
345

>  <Clearance Route>
metabolic

>  <PC1>
4.61002

>  <PC2>
0.720234

$$$$
Pidotimod
  -OEChem-08301611272D

 16 17  0     1  0  0  0  0  0999 V2000
   -0.3065    0.9519    0.0000 C   0  0  0  0  0  0  0  0  0  0  0  0
    0.0000    0.0000    0.0000 C   0  0  2  0  0  0  0  0  0  0  0  0
    1.0014   -0.0000    0.0000 N   0  0  0  0  0  0  0  0  0  0  0  0
    1.3131    0.9519    0.0000 C   0  0  0  0  0  0  0  0  0  0  0  0
    0.5007    1.5426    0.0000 S   0  0  0  0  0  0  0  0  0  0  0  0
    1.5883   -0.8097    0.0000 C   0  0  0  0  0  0  0  0  0  0  0  0
    2.5829   -0.7063    0.0000 C   0  0  2  0  0  0  0  0  0  0  0  0
    3.2489   -1.4523    0.0000 C   0  0  0  0  0  0  0  0  0  0  0  0
    4.1645   -1.0464    0.0000 C   0  0  0  0  0  0  0  0  0  0  0  0
    4.0637   -0.0498    0.0000 C   0  0  0  0  0  0  0  0  0  0  0  0
    3.0814    0.1611    0.0000 N   0  0  0  0  0  0  0  0  0  0  0  0
    4.8089    0.6171    0.0000 O   0  0  0  0  0  0  0  0  0  0  0  0
    1.1805   -1.7228    0.0000 O   0  0  0  0  0  0  0  0  0  0  0  0
   -0.5889   -0.8082    0.0000 C   0  0  0  0  0  0  0  0  0  0  0  0
   -0.1833   -1.7223    0.0000 O   0  0  0  0  0  0  0  0  0  0  0  0
   -1.5832   -0.7024    0.0000 O   0  0  0  0  0  0  0  0  0  0  0  0
  1  5  1  0  0  0  0
  1  2  1  0  0  0  0
  2  3  1  0  0  0  0
  3  4  1  0  0  0  0
  4  5  1  0  0  0  0
  3  6  1  0  0  0  0
  7  6  1  1  0  0  0
  7 11  1  0  0  0  0
  7  8  1  0  0  0  0
  8  9  1  0  0  0  0
  9 10  1  0  0  0  0
 10 11  1  0  0  0  0
 10 12  2  0  0  0  0
  6 13  2  0  0  0  0
  2 14  1  6  0  0  0
 14 15  1  0  0  0  0
 14 16  2  0  0  0  0
M  END
>  <Name>
Pidotimod

>  <CAS #>
121808-62-6

>  <human Clearance (mL/min/kg)>
1.16

>  <Primary mechanism (metabolic, biliary or renal)>
renal

>  <seqId>
717.0

>  <Code (mechanism and clearance degree index)>
R1

>  < Five M1 and R1 test groups>
R1_5

>  <formamide>
0

>  <prodrug phosphates>
0

>  <VolSurf_V>
485.625

>  <VolSurf_S>
353.579

>  <VolSurf_R>
1.37346

>  <VolSurf_G>
1.28737

>  <VolSurf_IW1>
0.132644

>  <VolSurf_IW2>
0.256199

>  <VolSurf_IW3>
0.603338

>  <VolSurf_IW4>
0.988919

>  <VolSurf_ID1>
0.106614

>  <VolSurf_ID2>
0.223522

>  <VolSurf_ID3>
0.31745

>  <VolSurf_ID4>
0.393156

>  <VolSurf_HL1>
19.169

>  <VolSurf_HL2>
20.5135

>  <VolSurf_A>
4.61184

>  <VolSurf_CP>
0.065892

>  <VolSurf_POL>
21.101

>  <VolSurf_MW>
243.26

>  <VolSurf_FLEX>
1.33464

>  <VolSurf_FLEX_RB>
0.444879

>  <VolSurf_NCC>
1.0

>  <VolSurf_LOGP n-Oct>
-1.242

>  <VolSurf_LOGP c-Hex>
-5.112

>  <VolSurf_PSA>
107.07

>  <VolSurf_HSA>
246.509

>  <VolSurf_PSAR>
0.302818

>  <VolSurf_PHSAR>
0.434345

>  <VolSurf_LgD5>
-3.36663

>  <VolSurf_LgD6>
-4.17725

>  <VolSurf_LgD7>
-4.52445

>  <VolSurf_LgD7.5>
-4.56688

>  <VolSurf_LgD8>
-4.58122

>  <VolSurf_LgD9>
-4.58739

>  <VolSurf_LgD10>
-4.58869

>  <VolSurf_AUS7.4>
0.0

>  <VolSurf_%FU4>
6.63614

>  <VolSurf_%FU5>
0.705766

>  <VolSurf_%FU6>
0.0710278

>  <VolSurf_%FU7>
0.00710731

>  <VolSurf_%FU8>
7.10765E-4

>  <VolSurf_%FU9>
7.10657E-5

>  <VolSurf_%FU10>
7.09535E-6

>  <ID>
345

>  <MOKAID>
346

>  <Clearance Route>
renal

>  <PC1>
-3.65475

>  <PC2>
2.94081

$$$$
Piperacillin
  -OEChem-08301611272D

 37 40  0     1  0  0  0  0  0999 V2000
   -0.8246    6.9608    0.0000 C   0  0  0  0  0  0  0  0  0  0  0  0
   -1.7905    6.7020    0.0000 C   0  0  0  0  0  0  0  0  0  0  0  0
   -2.0493    5.7361    0.0000 N   0  0  0  0  0  0  0  0  0  0  0  0
   -3.0185    5.4703    0.0000 C   0  0  0  0  0  0  0  0  0  0  0  0
   -3.2787    4.4995    0.0000 C   0  0  0  0  0  0  0  0  0  0  0  0
   -2.5696    3.7944    0.0000 N   0  0  0  0  0  0  0  0  0  0  0  0
   -2.8284    2.8284    0.0000 C   0  0  0  0  0  0  0  0  0  0  0  0
   -3.7944    2.5696    0.0000 O   0  0  0  0  0  0  0  0  0  0  0  0
   -2.1213    2.1213    0.0000 N   0  0  0  0  0  0  0  0  0  0  0  0
   -2.3801    1.1554    0.0000 C   0  0  1  0  0  0  0  0  0  0  0  0
   -1.6730    0.4483    0.0000 C   0  0  0  0  0  0  0  0  0  0  0  0
   -1.9319   -0.5176    0.0000 O   0  0  0  0  0  0  0  0  0  0  0  0
   -0.7071    0.7071    0.0000 N   0  0  0  0  0  0  0  0  0  0  0  0
    0.0000    0.0000    0.0000 C   0  0  1  0  0  0  0  0  0  0  0  0
    1.0001    0.0000    0.0000 C   0  0  1  0  0  0  0  0  0  0  0  0
    1.9514    0.3089    0.0000 S   0  0  0  0  0  0  0  0  0  0  0  0
    2.5392   -0.5002    0.0000 C   0  0  0  0  0  0  0  0  0  0  0  0
    3.2824    0.1689    0.0000 C   0  0  0  0  0  0  0  0  0  0  0  0
    3.2822   -1.1694    0.0000 C   0  0  0  0  0  0  0  0  0  0  0  0
    1.9511   -1.3093    0.0000 C   0  0  1  0  0  0  0  0  0  0  0  0
    1.0000   -1.0001    0.0000 N   0  0  0  0  0  0  0  0  0  0  0  0
    0.0000   -1.0001    0.0000 C   0  0  0  0  0  0  0  0  0  0  0  0
   -0.7071   -1.7072    0.0000 O   0  0  0  0  0  0  0  0  0  0  0  0
    2.2599   -2.2604    0.0000 C   0  0  0  0  0  0  0  0  0  0  0  0
    1.5907   -3.0034    0.0000 O   0  0  0  0  0  0  0  0  0  0  0  0
    3.2381   -2.4685    0.0000 O   0  0  0  0  0  0  0  0  0  0  0  0
   -3.3461    0.8966    0.0000 C   0  0  0  0  0  0  0  0  0  0  0  0
   -3.6034   -0.0751    0.0000 C   0  0  0  0  0  0  0  0  0  0  0  0
   -4.5693   -0.3340    0.0000 C   0  0  0  0  0  0  0  0  0  0  0  0
   -5.2806    0.3690    0.0000 C   0  0  0  0  0  0  0  0  0  0  0  0
   -5.0233    1.3407    0.0000 C   0  0  0  0  0  0  0  0  0  0  0  0
   -4.0547    1.6094    0.0000 C   0  0  0  0  0  0  0  0  0  0  0  0
   -1.6030    4.0505    0.0000 C   0  0  0  0  0  0  0  0  0  0  0  0
   -0.8968    3.3424    0.0000 O   0  0  0  0  0  0  0  0  0  0  0  0
   -1.3428    5.0214    0.0000 C   0  0  0  0  0  0  0  0  0  0  0  0
   -0.3762    5.2774    0.0000 O   0  0  0  0  0  0  0  0  0  0  0  0
    0.8438    0.9877    0.0000 H   0  0  0  0  0  0  0  0  0  0  0  0
  1  2  1  0  0  0  0
  2  3  1  0  0  0  0
  3 35  1  0  0  0  0
  3  4  1  0  0  0  0
  4  5  1  0  0  0  0
  5  6  1  0  0  0  0
  6  7  1  0  0  0  0
  7  8  2  0  0  0  0
  7  9  1  0  0  0  0
  9 10  1  0  0  0  0
 10 11  1  1  0  0  0
 11 12  2  0  0  0  0
 11 13  1  0  0  0  0
 14 13  1  1  0  0  0
 14 22  1  0  0  0  0
 14 15  1  0  0  0  0
 15 21  1  0  0  0  0
 15 16  1  0  0  0  0
 16 17  1  0  0  0  0
 17 18  1  0  0  0  0
 17 19  1  0  0  0  0
 17 20  1  0  0  0  0
 20 21  1  0  0  0  0
 21 22  1  0  0  0  0
 22 23  2  0  0  0  0
 20 24  1  6  0  0  0
 24 25  2  0  0  0  0
 24 26  1  0  0  0  0
 10 27  1  0  0  0  0
 27 32  2  0  0  0  0
 27 28  1  0  0  0  0
 28 29  2  0  0  0  0
 29 30  1  0  0  0  0
 30 31  2  0  0  0  0
 31 32  1  0  0  0  0
  6 33  1  0  0  0  0
 33 34  2  0  0  0  0
 33 35  1  0  0  0  0
 35 36  2  0  0  0  0
 15 37  1  6  0  0  0
M  END
>  <Name>
Piperacillin

>  <CAS #>
61477-96-1

>  <human Clearance (mL/min/kg)>
4.0

>  <Primary mechanism (metabolic, biliary or renal)>
renal

>  <seqId>
721.0

>  <Code (mechanism and clearance degree index)>
R1

>  < Five M1 and R1 test groups>
R1_3

>  <formamide>
0

>  <prodrug phosphates>
0

>  <VolSurf_V>
1042.0

>  <VolSurf_S>
708.001

>  <VolSurf_R>
1.47175

>  <VolSurf_G>
1.70003

>  <VolSurf_IW1>
0.0779133

>  <VolSurf_IW2>
0.180377

>  <VolSurf_IW3>
0.40342

>  <VolSurf_IW4>
0.587939

>  <VolSurf_ID1>
0.0438173

>  <VolSurf_ID2>
0.0889981

>  <VolSurf_ID3>
0.11922

>  <VolSurf_ID4>
0.141643

>  <VolSurf_HL1>
7.98805

>  <VolSurf_HL2>
8.29371

>  <VolSurf_A>
5.45047

>  <VolSurf_CP>
0.231746

>  <VolSurf_POL>
48.483

>  <VolSurf_MW>
516.547

>  <VolSurf_FLEX>
3.2134

>  <VolSurf_FLEX_RB>
0.292127

>  <VolSurf_NCC>
1.0

>  <VolSurf_LOGP n-Oct>
0.842

>  <VolSurf_LOGP c-Hex>
-4.198

>  <VolSurf_PSA>
176.33

>  <VolSurf_HSA>
531.671

>  <VolSurf_PSAR>
0.249053

>  <VolSurf_PHSAR>
0.331652

>  <VolSurf_LgD5>
-1.24801

>  <VolSurf_LgD6>
-2.07026

>  <VolSurf_LgD7>
-2.43522

>  <VolSurf_LgD7.5>
-2.48105

>  <VolSurf_LgD8>
-2.49661

>  <VolSurf_LgD9>
-2.50326

>  <VolSurf_LgD10>
-2.50395

>  <VolSurf_AUS7.4>
0.0

>  <VolSurf_%FU4>
7.18412

>  <VolSurf_%FU5>
0.768074

>  <VolSurf_%FU6>
0.077342

>  <VolSurf_%FU7>
0.00773959

>  <VolSurf_%FU8>
7.74012E-4

>  <VolSurf_%FU9>
7.74015E-5

>  <VolSurf_%FU10>
7.73983E-6

>  <ID>
346

>  <MOKAID>
347

>  <Clearance Route>
possible billary

>  <PC1>
-2.71772

>  <PC2>
-1.75193

$$$$
Piperphentonamine
  -OEChem-08301611272D

 26 28  0     1  0  0  0  0  0999 V2000
  -10.4004    1.9760    0.0000 O   0  0  0  0  0  0  0  0  0  0  0  0
   -9.5351    1.4747    0.0000 C   0  0  0  0  0  0  0  0  0  0  0  0
   -8.6653    1.9786    0.0000 C   0  0  0  0  0  0  0  0  0  0  0  0
   -7.8000    1.4773    0.0000 C   0  0  0  0  0  0  0  0  0  0  0  0
   -7.7957    0.4773    0.0000 C   0  0  0  0  0  0  0  0  0  0  0  0
   -8.6654   -0.0266    0.0000 C   0  0  0  0  0  0  0  0  0  0  0  0
   -9.5396    0.4696    0.0000 C   0  0  0  0  0  0  0  0  0  0  0  0
   -6.9282   -0.0202    0.0000 C   0  0  0  0  0  0  0  0  0  0  0  0
   -6.0636    0.4824    0.0000 C   0  0  0  0  0  0  0  0  0  0  0  0
   -5.1961   -0.0151    0.0000 C   0  0  0  0  0  0  0  0  0  0  0  0
   -5.1932   -1.0151    0.0000 O   0  0  0  0  0  0  0  0  0  0  0  0
   -4.3316    0.4874    0.0000 C   0  0  0  0  0  0  0  0  0  0  0  0
   -3.4641   -0.0101    0.0000 C   0  0  0  0  0  0  0  0  0  0  0  0
   -2.5995    0.4924    0.0000 N   0  0  3  0  0  0  0  0  0  0  0  0
   -2.6024    1.4924    0.0000 C   0  0  0  0  0  0  0  0  0  0  0  0
   -1.7320   -0.0050    0.0000 C   0  0  0  0  0  0  0  0  0  0  0  0
   -0.8675    0.4975    0.0000 C   0  0  0  0  0  0  0  0  0  0  0  0
    0.0000    0.0000    0.0000 C   0  0  0  0  0  0  0  0  0  0  0  0
   -0.0000   -1.0058    0.0000 C   0  0  0  0  0  0  0  0  0  0  0  0
    0.8680   -1.5037    0.0000 C   0  0  0  0  0  0  0  0  0  0  0  0
    1.7360   -1.0071    0.0000 C   0  0  0  0  0  0  0  0  0  0  0  0
    2.6938   -1.3184    0.0000 O   0  0  0  0  0  0  0  0  0  0  0  0
    3.2858   -0.5036    0.0000 C   0  0  0  0  0  0  0  0  0  0  0  0
    2.6938    0.3110    0.0000 O   0  0  0  0  0  0  0  0  0  0  0  0
    1.7360   -0.0000    0.0000 C   0  0  0  0  0  0  0  0  0  0  0  0
    0.8680    0.5079    0.0000 C   0  0  0  0  0  0  0  0  0  0  0  0
  1  2  1  0  0  0  0
  2  7  2  0  0  0  0
  2  3  1  0  0  0  0
  3  4  2  0  0  0  0
  4  5  1  0  0  0  0
  5  6  2  0  0  0  0
  6  7  1  0  0  0  0
  5  8  1  0  0  0  0
  8  9  2  0  0  0  0
  9 10  1  0  0  0  0
 10 11  2  0  0  0  0
 10 12  1  0  0  0  0
 12 13  1  0  0  0  0
 13 14  1  0  0  0  0
 14 15  1  0  0  0  0
 14 16  1  0  0  0  0
 16 17  1  0  0  0  0
 17 18  1  0  0  0  0
 18 26  2  0  0  0  0
 18 19  1  0  0  0  0
 19 20  2  0  0  0  0
 20 21  1  0  0  0  0
 21 25  2  0  0  0  0
 21 22  1  0  0  0  0
 22 23  1  0  0  0  0
 23 24  1  0  0  0  0
 24 25  1  0  0  0  0
 25 26  1  0  0  0  0
M  END
>  <Name>
Piperphentonamine

>  <CAS #>
712260-52-1

>  <human Clearance (mL/min/kg)>
713.0

>  <Primary mechanism (metabolic, biliary or renal)>
metabolic

>  <seqId>
722.0

>  <Code (mechanism and clearance degree index)>
M1

>  < Five M1 and R1 test groups>
M1_2

>  <formamide>
0

>  <prodrug phosphates>
0

>  <VolSurf_V>
841.5

>  <VolSurf_S>
574.795

>  <VolSurf_R>
1.464

>  <VolSurf_G>
1.53989

>  <VolSurf_IW1>
0.0197788

>  <VolSurf_IW2>
0.075671

>  <VolSurf_IW3>
0.260975

>  <VolSurf_IW4>
0.82643

>  <VolSurf_ID1>
0.0200266

>  <VolSurf_ID2>
0.0233431

>  <VolSurf_ID3>
0.0169054

>  <VolSurf_ID4>
0.0328126

>  <VolSurf_HL1>
1.01173

>  <VolSurf_HL2>
0.630058

>  <VolSurf_A>
1.79149

>  <VolSurf_CP>
5.54577

>  <VolSurf_POL>
40.623

>  <VolSurf_MW>
354.419

>  <VolSurf_FLEX>
3.22146

>  <VolSurf_FLEX_RB>
0.322146

>  <VolSurf_NCC>
1.0

>  <VolSurf_LOGP n-Oct>
3.36

>  <VolSurf_LOGP c-Hex>
-1.232

>  <VolSurf_PSA>
71.57

>  <VolSurf_HSA>
503.225

>  <VolSurf_PSAR>
0.124514

>  <VolSurf_PHSAR>
0.142223

>  <VolSurf_LgD5>
-1.01488

>  <VolSurf_LgD6>
-0.662342

>  <VolSurf_LgD7>
0.150243

>  <VolSurf_LgD7.5>
0.621534

>  <VolSurf_LgD8>
1.08062

>  <VolSurf_LgD9>
1.74171

>  <VolSurf_LgD10>
1.92123

>  <VolSurf_AUS7.4>
0.0

>  <VolSurf_%FU4>
0.0

>  <VolSurf_%FU5>
0.0

>  <VolSurf_%FU6>
0.0

>  <VolSurf_%FU7>
0.0

>  <VolSurf_%FU8>
0.0

>  <VolSurf_%FU9>
0.0

>  <VolSurf_%FU10>
0.0

>  <ID>
347

>  <MOKAID>
348

>  <Clearance Route>
possible billary

>  <PC1>
0.202483

>  <PC2>
-2.29694

$$$$
Plazomicin
  -OEChem-08301611272D

 41 43  0     1  0  0  0  0  0999 V2000
    3.4810    4.9938    0.0000 O   0  0  0  0  0  0  0  0  0  0  0  0
    2.6121    4.4989    0.0000 C   0  0  1  0  0  0  0  0  0  0  0  0
    1.7437    5.0053    0.0000 C   0  0  2  0  0  0  0  0  0  0  0  0
    1.7511    6.0053    0.0000 N   0  0  0  0  0  0  0  0  0  0  0  0
    2.6208    6.4989    0.0000 C   0  0  0  0  0  0  0  0  0  0  0  0
    2.6281    7.4989    0.0000 C   0  0  2  0  0  0  0  0  0  0  0  0
    3.4978    7.9925    0.0000 C   0  0  0  0  0  0  0  0  0  0  0  0
    3.5052    8.9924    0.0000 C   0  0  0  0  0  0  0  0  0  0  0  0
    4.3748    9.4861    0.0000 N   0  0  0  0  0  0  0  0  0  0  0  0
    1.7658    8.0052    0.0000 O   0  0  0  0  0  0  0  0  0  0  0  0
    3.4831    5.9925    0.0000 O   0  0  0  0  0  0  0  0  0  0  0  0
    0.8681    4.5117    0.0000 C   0  0  0  0  0  0  0  0  0  0  0  0
    2.6047    3.4989    0.0000 C   0  0  1  0  0  0  0  0  0  0  0  0
    3.4686    2.9950    0.0000 O   0  0  0  0  0  0  0  0  0  0  0  0
    1.7379    3.0001    0.0000 C   0  0  1  0  0  0  0  0  0  0  0  0
    0.8696    3.5066    0.0000 C   0  0  1  0  0  0  0  0  0  0  0  0
    0.0029    3.0078    0.0000 N   0  0  0  0  0  0  0  0  0  0  0  0
    1.7350    2.0001    0.0000 O   0  0  0  0  0  0  0  0  0  0  0  0
    0.8675    1.5027    0.0000 C   0  0  2  0  0  0  0  0  0  0  0  0
    0.8675    0.4975    0.0000 C   0  0  2  0  0  0  0  0  0  0  0  0
    1.7328   -0.0038    0.0000 N   0  0  0  0  0  0  0  0  0  0  0  0
    0.0000    0.0000    0.0000 C   0  0  0  0  0  0  0  0  0  0  0  0
   -0.8675    0.4975    0.0000 C   0  0  0  0  0  0  0  0  0  0  0  0
   -0.8675    1.5027    0.0000 C   0  0  0  0  0  0  0  0  0  0  0  0
    0.0000    2.0104    0.0000 O   0  0  0  0  0  0  0  0  0  0  0  0
   -1.7350    2.0001    0.0000 C   0  0  0  0  0  0  0  0  0  0  0  0
   -2.5995    1.4976    0.0000 N   0  0  0  0  0  0  0  0  0  0  0  0
   -3.4670    1.9950    0.0000 C   0  0  0  0  0  0  0  0  0  0  0  0
   -4.3316    1.4925    0.0000 C   0  0  0  0  0  0  0  0  0  0  0  0
   -5.1991    1.9899    0.0000 O   0  0  0  0  0  0  0  0  0  0  0  0
    4.3441    4.4887    0.0000 C   0  0  2  0  0  0  0  0  0  0  0  0
    5.2161    4.9888    0.0000 C   0  0  2  0  0  0  0  0  0  0  0  0
    5.2204    5.9888    0.0000 O   0  0  0  0  0  0  0  0  0  0  0  0
    6.0792    4.4838    0.0000 C   0  0  1  0  0  0  0  0  0  0  0  0
    6.9467    4.9812    0.0000 N   0  0  0  0  0  0  0  0  0  0  0  0
    6.9496    5.9812    0.0000 C   0  0  0  0  0  0  0  0  0  0  0  0
    6.0792    3.4837    0.0000 C   0  0  1  0  0  0  0  0  0  0  0  0
    7.0642    3.6564    0.0000 C   0  0  0  0  0  0  0  0  0  0  0  0
    6.4194    2.5434    0.0000 O   0  0  0  0  0  0  0  0  0  0  0  0
    4.3352    3.4836    0.0000 O   0  0  0  0  0  0  0  0  0  0  0  0
    5.2072    2.9837    0.0000 C   0  0  0  0  0  0  0  0  0  0  0  0
  2  1  1  6  0  0  0
  2  3  1  0  0  0  0
  3  4  1  1  0  0  0
  4  5  1  0  0  0  0
  5  6  1  0  0  0  0
  6  7  1  0  0  0  0
  7  8  1  0  0  0  0
  8  9  1  0  0  0  0
  6 10  1  1  0  0  0
  5 11  2  0  0  0  0
  3 12  1  0  0  0  0
 12 16  1  0  0  0  0
  2 13  1  0  0  0  0
 13 14  1  1  0  0  0
 13 15  1  0  0  0  0
 15 16  1  0  0  0  0
 16 17  1  1  0  0  0
 15 18  1  6  0  0  0
 19 18  1  6  0  0  0
 19 25  1  0  0  0  0
 19 20  1  0  0  0  0
 20 21  1  6  0  0  0
 20 22  1  0  0  0  0
 22 23  1  0  0  0  0
 23 24  2  0  0  0  0
 24 25  1  0  0  0  0
 24 26  1  0  0  0  0
 26 27  1  0  0  0  0
 27 28  1  0  0  0  0
 28 29  1  0  0  0  0
 29 30  1  0  0  0  0
 31  1  1  6  0  0  0
 31 32  1  0  0  0  0
 32 33  1  6  0  0  0
 32 34  1  0  0  0  0
 34 35  1  1  0  0  0
 35 36  1  0  0  0  0
 34 37  1  0  0  0  0
 37 41  1  0  0  0  0
 37 38  1  0  0  0  0
 37 39  1  1  0  0  0
 31 40  1  0  0  0  0
 40 41  1  0  0  0  0
M  END
>  <Name>
Plazomicin

>  <CAS #>
1154757-24-0

>  <human Clearance (mL/min/kg)>
1.14

>  <Primary mechanism (metabolic, biliary or renal)>
renal

>  <seqId>
731.0

>  <Code (mechanism and clearance degree index)>
R1

>  < Five M1 and R1 test groups>
R1_3

>  <formamide>
0

>  <prodrug phosphates>
0

>  <VolSurf_V>
1183.5

>  <VolSurf_S>
811.4

>  <VolSurf_R>
1.45859

>  <VolSurf_G>
1.83636

>  <VolSurf_IW1>
0.0341767

>  <VolSurf_IW2>
0.0539406

>  <VolSurf_IW3>
0.0744965

>  <VolSurf_IW4>
0.234575

>  <VolSurf_ID1>
0.0341213

>  <VolSurf_ID2>
0.100069

>  <VolSurf_ID3>
0.0

>  <VolSurf_ID4>
0.0

>  <VolSurf_HL1>
798.5

>  <VolSurf_HL2>
438.25

>  <VolSurf_A>
5.09496

>  <VolSurf_CP>
0.00140582

>  <VolSurf_POL>
64.6641

>  <VolSurf_MW>
595.706

>  <VolSurf_FLEX>
2.82059

>  <VolSurf_FLEX_RB>
0.122634

>  <VolSurf_NCC>
3.0

>  <VolSurf_LOGP n-Oct>
-6.262

>  <VolSurf_LOGP c-Hex>
-8.972

>  <VolSurf_PSA>
310.12

>  <VolSurf_HSA>
501.28

>  <VolSurf_PSAR>
0.382204

>  <VolSurf_PHSAR>
0.618656

>  <VolSurf_LgD5>
-9.0

>  <VolSurf_LgD6>
-9.0

>  <VolSurf_LgD7>
-9.0

>  <VolSurf_LgD7.5>
-9.0

>  <VolSurf_LgD8>
-9.0

>  <VolSurf_LgD9>
-7.11111

>  <VolSurf_LgD10>
-6.36932

>  <VolSurf_AUS7.4>
0.0

>  <VolSurf_%FU4>
8.37888E-20

>  <VolSurf_%FU5>
8.24146E-15

>  <VolSurf_%FU6>
7.04434E-10

>  <VolSurf_%FU7>
2.36552E-5

>  <VolSurf_%FU8>
0.0743692

>  <VolSurf_%FU9>
14.1089

>  <VolSurf_%FU10>
78.0793

>  <ID>
348

>  <MOKAID>
349

>  <Clearance Route>
renal

>  <PC1>
-8.35872

>  <PC2>
-1.37114

$$$$
PR-104
  -OEChem-08301611272D

 33 33  0     1  0  0  0  0  0999 V2000
   -1.7328   -0.0038    0.0000 N   0  0  3  0  0  0  0  0  0  0  0  0
   -1.7313   -1.0038    0.0000 C   0  0  0  0  0  0  0  0  0  0  0  0
   -2.5966   -1.5050    0.0000 C   0  0  0  0  0  0  0  0  0  0  0  0
   -2.5952   -2.5050    0.0000 O   0  0  0  0  0  0  0  0  0  0  0  0
   -3.4605   -3.0063    0.0000 S   0  0  0  0  0  0  0  0  0  0  0  0
   -4.3258   -3.5075    0.0000 C   0  0  0  0  0  0  0  0  0  0  0  0
   -3.9618   -2.1410    0.0000 O   0  0  0  0  0  0  0  0  0  0  0  0
   -2.9592   -3.8716    0.0000 O   0  0  0  0  0  0  0  0  0  0  0  0
   -2.5995    0.4950    0.0000 C   0  0  0  0  0  0  0  0  0  0  0  0
   -3.4648   -0.0063    0.0000 C   0  0  0  0  0  0  0  0  0  0  0  0
   -4.3316    0.4925    0.0000 Br  0  0  0  0  0  0  0  0  0  0  0  0
   -0.8675    0.4975    0.0000 C   0  0  0  0  0  0  0  0  0  0  0  0
    0.0000    0.0000    0.0000 C   0  0  0  0  0  0  0  0  0  0  0  0
    0.0000   -1.0000    0.0000 C   0  0  0  0  0  0  0  0  0  0  0  0
    0.8660   -1.5000    0.0000 N   0  0  0  0  0  0  0  0  0  0  0  0
    0.8660   -2.5000    0.0000 C   0  0  0  0  0  0  0  0  0  0  0  0
    1.7321   -3.0000    0.0000 C   0  0  0  0  0  0  0  0  0  0  0  0
    1.7321   -4.0000    0.0000 O   0  0  0  0  0  0  0  0  0  0  0  0
    2.5981   -4.5000    0.0000 P   0  0  0  0  0  0  0  0  0  0  0  0
    3.4641   -5.0000    0.0000 O   0  0  0  0  0  0  0  0  0  0  0  0
    3.0981   -3.6340    0.0000 O   0  0  0  0  0  0  0  0  0  0  0  0
    2.0981   -5.3660    0.0000 O   0  0  0  0  0  0  0  0  0  0  0  0
   -0.8660   -1.5000    0.0000 O   0  0  0  0  0  0  0  0  0  0  0  0
    0.8675    0.4975    0.0000 C   0  0  0  0  0  0  0  0  0  0  0  0
    0.8675    1.5027    0.0000 C   0  0  0  0  0  0  0  0  0  0  0  0
    1.7350    2.0001    0.0000 N   0  0  0  0  0  0  0  0  0  0  0  0
    1.7379    3.0001    0.0000 O   0  0  0  0  0  0  0  0  0  0  0  0
    2.5995    1.4976    0.0000 O   0  0  0  0  0  0  0  0  0  0  0  0
   -0.8675    1.5027    0.0000 C   0  0  0  0  0  0  0  0  0  0  0  0
   -1.7350    2.0001    0.0000 N   0  0  0  0  0  0  0  0  0  0  0  0
   -2.5995    1.4976    0.0000 O   0  0  0  0  0  0  0  0  0  0  0  0
   -1.7379    3.0001    0.0000 O   0  0  0  0  0  0  0  0  0  0  0  0
   -0.0000    2.0104    0.0000 C   0  0  0  0  0  0  0  0  0  0  0  0
  1  2  1  0  0  0  0
  2  3  1  0  0  0  0
  3  4  1  0  0  0  0
  4  5  1  0  0  0  0
  5  6  1  0  0  0  0
  5  7  2  0  0  0  0
  5  8  2  0  0  0  0
  1  9  1  0  0  0  0
  9 10  1  0  0  0  0
 10 11  1  0  0  0  0
  1 12  1  0  0  0  0
 12 13  2  0  0  0  0
 13 14  1  0  0  0  0
 14 15  1  0  0  0  0
 15 16  1  0  0  0  0
 16 17  1  0  0  0  0
 17 18  1  0  0  0  0
 18 19  1  0  0  0  0
 19 20  2  0  0  0  0
 19 21  1  0  0  0  0
 19 22  1  0  0  0  0
 14 23  2  0  0  0  0
 13 24  1  0  0  0  0
 24 25  2  0  0  0  0
 25 33  1  0  0  0  0
 25 26  1  0  0  0  0
 26 27  2  0  0  0  0
 26 28  2  0  0  0  0
 12 29  1  0  0  0  0
 29 30  1  0  0  0  0
 30 31  2  0  0  0  0
 30 32  2  0  0  0  0
 29 33  2  0  0  0  0
M  END
>  <Name>
PR-104

>  <CAS #>
851627-62-8

>  <human Clearance (mL/min/kg)>
44.8

>  <Primary mechanism (metabolic, biliary or renal)>
metabolic

>  <seqId>
734.0

>  <Code (mechanism and clearance degree index)>
M1

>  < Five M1 and R1 test groups>
M1_2

>  <formamide>
0

>  <prodrug phosphates>
1

>  <VolSurf_V>
986.375

>  <VolSurf_S>
658.168

>  <VolSurf_R>
1.49867

>  <VolSurf_G>
1.60967

>  <VolSurf_IW1>
0.053574

>  <VolSurf_IW2>
0.112864

>  <VolSurf_IW3>
0.382412

>  <VolSurf_IW4>
0.541507

>  <VolSurf_ID1>
0.0788076

>  <VolSurf_ID2>
0.131645

>  <VolSurf_ID3>
0.198421

>  <VolSurf_ID4>
0.258139

>  <VolSurf_HL1>
10.0059

>  <VolSurf_HL2>
6.90476

>  <VolSurf_A>
6.74645

>  <VolSurf_CP>
0.115582

>  <VolSurf_POL>
47.385

>  <VolSurf_MW>
577.255

>  <VolSurf_FLEX>
2.96962

>  <VolSurf_FLEX_RB>
0.197974

>  <VolSurf_NCC>
1.0

>  <VolSurf_LOGP n-Oct>
0.265

>  <VolSurf_LOGP c-Hex>
-4.97

>  <VolSurf_PSA>
218.242

>  <VolSurf_HSA>
439.925

>  <VolSurf_PSAR>
0.331591

>  <VolSurf_PHSAR>
0.49609

>  <VolSurf_LgD5>
-3.24844

>  <VolSurf_LgD6>
-3.66046

>  <VolSurf_LgD7>
-4.39016

>  <VolSurf_LgD7.5>
-4.69235

>  <VolSurf_LgD8>
-4.86849

>  <VolSurf_LgD9>
-4.97178

>  <VolSurf_LgD10>
-4.98373

>  <VolSurf_AUS7.4>
0.0

>  <VolSurf_%FU4>
0.0433127

>  <VolSurf_%FU5>
0.00374226

>  <VolSurf_%FU6>
1.58353E-4

>  <VolSurf_%FU7>
2.33951E-6

>  <VolSurf_%FU8>
2.4568E-8

>  <VolSurf_%FU9>
2.46913E-10

>  <VolSurf_%FU10>
2.46997E-12

>  <ID>
349

>  <MOKAID>
350

>  <Clearance Route>
renal

>  <PC1>
-4.63737

>  <PC2>
-0.39614

$$$$
Practolol
  -OEChem-08301611272D

 19 19  0     1  0  0  0  0  0999 V2000
    0.8675    1.5027    0.0000 C   0  0  0  0  0  0  0  0  0  0  0  0
    0.8675    0.4975    0.0000 C   0  0  0  0  0  0  0  0  0  0  0  0
    0.0000    0.0000    0.0000 C   0  0  0  0  0  0  0  0  0  0  0  0
   -0.8675    0.4975    0.0000 C   0  0  0  0  0  0  0  0  0  0  0  0
   -1.7328   -0.0038    0.0000 N   0  0  0  0  0  0  0  0  0  0  0  0
   -1.7313   -1.0038    0.0000 C   0  0  0  0  0  0  0  0  0  0  0  0
   -2.5966   -1.5050    0.0000 C   0  0  0  0  0  0  0  0  0  0  0  0
   -0.8646   -1.5025    0.0000 O   0  0  0  0  0  0  0  0  0  0  0  0
   -0.8675    1.5027    0.0000 C   0  0  0  0  0  0  0  0  0  0  0  0
    0.0000    2.0104    0.0000 C   0  0  0  0  0  0  0  0  0  0  0  0
    1.7350    2.0001    0.0000 O   0  0  0  0  0  0  0  0  0  0  0  0
    1.7379    3.0001    0.0000 C   0  0  0  0  0  0  0  0  0  0  0  0
    2.6054    3.4976    0.0000 C   0  0  1  0  0  0  0  0  0  0  0  0
    2.6084    4.4976    0.0000 C   0  0  0  0  0  0  0  0  0  0  0  0
    3.4759    4.9950    0.0000 N   0  0  0  0  0  0  0  0  0  0  0  0
    3.4788    5.9950    0.0000 C   0  0  0  0  0  0  0  0  0  0  0  0
    2.6143    6.4976    0.0000 C   0  0  0  0  0  0  0  0  0  0  0  0
    4.3463    6.4925    0.0000 C   0  0  0  0  0  0  0  0  0  0  0  0
    3.4700    2.9950    0.0000 O   0  0  0  0  0  0  0  0  0  0  0  0
  1 10  2  0  0  0  0
  1  2  1  0  0  0  0
  2  3  2  0  0  0  0
  3  4  1  0  0  0  0
  4  5  1  0  0  0  0
  5  6  1  0  0  0  0
  6  7  1  0  0  0  0
  6  8  2  0  0  0  0
  4  9  2  0  0  0  0
  9 10  1  0  0  0  0
  1 11  1  0  0  0  0
 11 12  1  0  0  0  0
 12 13  1  0  0  0  0
 13 14  1  0  0  0  0
 14 15  1  0  0  0  0
 15 16  1  0  0  0  0
 16 17  1  0  0  0  0
 16 18  1  0  0  0  0
 13 19  1  1  0  0  0
M  END
>  <Name>
Practolol

>  <CAS #>
6673-35-4

>  <human Clearance (mL/min/kg)>
2.28

>  <Primary mechanism (metabolic, biliary or renal)>
renal

>  <seqId>
735.0

>  <Code (mechanism and clearance degree index)>
R1

>  < Five M1 and R1 test groups>
R1_1

>  <formamide>
0

>  <prodrug phosphates>
0

>  <VolSurf_V>
672.25

>  <VolSurf_S>
490.057

>  <VolSurf_R>
1.37178

>  <VolSurf_G>
1.51745

>  <VolSurf_IW1>
0.0894847

>  <VolSurf_IW2>
0.249132

>  <VolSurf_IW3>
0.5098

>  <VolSurf_IW4>
0.696948

>  <VolSurf_ID1>
0.0328162

>  <VolSurf_ID2>
0.115754

>  <VolSurf_ID3>
0.215216

>  <VolSurf_ID4>
0.244319

>  <VolSurf_HL1>
2.56897

>  <VolSurf_HL2>
2.29878

>  <VolSurf_A>
3.6435

>  <VolSurf_CP>
0.577901

>  <VolSurf_POL>
31.934

>  <VolSurf_MW>
267.344

>  <VolSurf_FLEX>
2.3756

>  <VolSurf_FLEX_RB>
0.215963

>  <VolSurf_NCC>
1.0

>  <VolSurf_LOGP n-Oct>
0.945

>  <VolSurf_LOGP c-Hex>
-0.714

>  <VolSurf_PSA>
84.34

>  <VolSurf_HSA>
405.717

>  <VolSurf_PSAR>
0.172102

>  <VolSurf_PHSAR>
0.207879

>  <VolSurf_LgD5>
-2.43033

>  <VolSurf_LgD6>
-2.05268

>  <VolSurf_LgD7>
-1.22199

>  <VolSurf_LgD7.5>
-0.743738

>  <VolSurf_LgD8>
-0.267335

>  <VolSurf_LgD9>
0.54049

>  <VolSurf_LgD10>
0.882824

>  <VolSurf_AUS7.4>
0.362752

>  <VolSurf_%FU4>
6.49557E-4

>  <VolSurf_%FU5>
0.00649519

>  <VolSurf_%FU6>
0.064914

>  <VolSurf_%FU7>
0.645369

>  <VolSurf_%FU8>
6.09942

>  <VolSurf_%FU9>
39.3778

>  <VolSurf_%FU10>
86.6562

>  <ID>
350

>  <MOKAID>
351

>  <Clearance Route>
uncertain

>  <PC1>
-0.14599600000000001

>  <PC2>
1.0950799999999998

$$$$
Pralidoxime
  -OEChem-08301611272D

 10 10  0     0  0  0  0  0  0999 V2000
    0.8675    1.5027    0.0000 C   0  0  0  0  0  0  0  0  0  0  0  0
   -0.0000    2.0104    0.0000 N   0  3  0  0  0  0  0  0  0  0  0  0
   -0.8675    1.5027    0.0000 C   0  0  0  0  0  0  0  0  0  0  0  0
   -0.8675    0.4975    0.0000 C   0  0  0  0  0  0  0  0  0  0  0  0
    0.0000    0.0000    0.0000 C   0  0  0  0  0  0  0  0  0  0  0  0
    0.8675    0.4975    0.0000 C   0  0  0  0  0  0  0  0  0  0  0  0
   -0.0000    3.0104    0.0000 C   0  0  0  0  0  0  0  0  0  0  0  0
    1.7350    2.0001    0.0000 C   0  0  0  0  0  0  0  0  0  0  0  0
    1.7379    3.0001    0.0000 N   0  0  0  0  0  0  0  0  0  0  0  0
    2.6054    3.4976    0.0000 O   0  0  0  0  0  0  0  0  0  0  0  0
  1  6  2  0  0  0  0
  1  2  1  0  0  0  0
  2  3  2  0  0  0  0
  3  4  1  0  0  0  0
  4  5  2  0  0  0  0
  5  6  1  0  0  0  0
  2  7  1  0  0  0  0
  1  8  1  0  0  0  0
  8  9  2  0  0  0  0
  9 10  1  0  0  0  0
M  CHG  1   2   1
M  END
>  <Name>
Pralidoxime

>  <CAS #>
51-15-0

>  <human Clearance (mL/min/kg)>
9.0

>  <Primary mechanism (metabolic, biliary or renal)>
renal

>  <seqId>
738.0

>  <Code (mechanism and clearance degree index)>
R1

>  < Five M1 and R1 test groups>
R1_3

>  <formamide>
0

>  <prodrug phosphates>
0

>  <VolSurf_V>
351.5

>  <VolSurf_S>
261.215

>  <VolSurf_R>
1.34564

>  <VolSurf_G>
1.12939

>  <VolSurf_IW1>
0.251452

>  <VolSurf_IW2>
0.741235

>  <VolSurf_IW3>
1.62625

>  <VolSurf_IW4>
2.04661

>  <VolSurf_ID1>
0.117109

>  <VolSurf_ID2>
0.175798

>  <VolSurf_ID3>
0.228196

>  <VolSurf_ID4>
0.324245

>  <VolSurf_HL1>
1.89623

>  <VolSurf_HL2>
1.58065

>  <VolSurf_A>
6.2214

>  <VolSurf_CP>
0.80908

>  <VolSurf_POL>
14.423

>  <VolSurf_MW>
137.159

>  <VolSurf_FLEX>
0.139326

>  <VolSurf_FLEX_RB>
0.046442

>  <VolSurf_NCC>
1.0

>  <VolSurf_LOGP n-Oct>
-3.241

>  <VolSurf_LOGP c-Hex>
-0.648

>  <VolSurf_PSA>
37.19

>  <VolSurf_HSA>
224.025

>  <VolSurf_PSAR>
0.142373

>  <VolSurf_PHSAR>
0.166009

>  <VolSurf_LgD5>
-3.24157

>  <VolSurf_LgD6>
-3.24663

>  <VolSurf_LgD7>
-3.29428

>  <VolSurf_LgD7.5>
-3.39088

>  <VolSurf_LgD8>
-3.60226

>  <VolSurf_LgD9>
-4.36336

>  <VolSurf_LgD10>
-5.14289

>  <VolSurf_AUS7.4>
0.0

>  <VolSurf_%FU4>
0.0

>  <VolSurf_%FU5>
0.0

>  <VolSurf_%FU6>
0.0

>  <VolSurf_%FU7>
0.0

>  <VolSurf_%FU8>
0.0

>  <VolSurf_%FU9>
0.0

>  <VolSurf_%FU10>
0.0

>  <ID>
351

>  <MOKAID>
352

>  <Clearance Route>
uncertain

>  <PC1>
-1.63757

>  <PC2>
7.29252

$$$$
Pramipexole
  -OEChem-08301611272D

 14 15  0     1  0  0  0  0  0999 V2000
    2.6938   -0.3125    0.0000 N   0  0  0  0  0  0  0  0  0  0  0  0
    1.7360   -0.0012    0.0000 C   0  0  0  0  0  0  0  0  0  0  0  0
    1.7360    1.0058    0.0000 C   0  0  0  0  0  0  0  0  0  0  0  0
    2.6938    1.3169    0.0000 S   0  0  0  0  0  0  0  0  0  0  0  0
    3.2858    0.5023    0.0000 C   0  0  0  0  0  0  0  0  0  0  0  0
    4.2858    0.5024    0.0000 N   0  0  0  0  0  0  0  0  0  0  0  0
    0.8680    1.5138    0.0000 C   0  0  0  0  0  0  0  0  0  0  0  0
    0.0000    1.0058    0.0000 C   0  0  1  0  0  0  0  0  0  0  0  0
   -0.8675    1.5032    0.0000 N   0  0  0  0  0  0  0  0  0  0  0  0
   -1.7320    1.0007    0.0000 C   0  0  0  0  0  0  0  0  0  0  0  0
   -2.5995    1.4981    0.0000 C   0  0  0  0  0  0  0  0  0  0  0  0
   -3.4641    0.9956    0.0000 C   0  0  0  0  0  0  0  0  0  0  0  0
    0.0000    0.0000    0.0000 C   0  0  0  0  0  0  0  0  0  0  0  0
    0.8680   -0.4978    0.0000 C   0  0  0  0  0  0  0  0  0  0  0  0
  1  5  2  0  0  0  0
  1  2  1  0  0  0  0
  2 14  1  0  0  0  0
  2  3  2  0  0  0  0
  3  4  1  0  0  0  0
  4  5  1  0  0  0  0
  5  6  1  0  0  0  0
  3  7  1  0  0  0  0
  7  8  1  0  0  0  0
  8  9  1  6  0  0  0
  9 10  1  0  0  0  0
 10 11  1  0  0  0  0
 11 12  1  0  0  0  0
  8 13  1  0  0  0  0
 13 14  1  0  0  0  0
M  END
>  <Name>
Pramipexole

>  <CAS #>
104632-26-0

>  <human Clearance (mL/min/kg)>
7.2

>  <Primary mechanism (metabolic, biliary or renal)>
renal

>  <seqId>
739.0

>  <Code (mechanism and clearance degree index)>
R1

>  < Five M1 and R1 test groups>
R1_2

>  <formamide>
0

>  <prodrug phosphates>
0

>  <VolSurf_V>
510.875

>  <VolSurf_S>
373.601

>  <VolSurf_R>
1.36744

>  <VolSurf_G>
1.32914

>  <VolSurf_IW1>
0.127855

>  <VolSurf_IW2>
0.326996

>  <VolSurf_IW3>
0.825489

>  <VolSurf_IW4>
1.34266

>  <VolSurf_ID1>
0.0435899

>  <VolSurf_ID2>
0.12066

>  <VolSurf_ID3>
0.204654

>  <VolSurf_ID4>
0.251617

>  <VolSurf_HL1>
1.70423

>  <VolSurf_HL2>
1.33077

>  <VolSurf_A>
1.48418

>  <VolSurf_CP>
0.983144

>  <VolSurf_POL>
26.769

>  <VolSurf_MW>
212.335

>  <VolSurf_FLEX>
0.604313

>  <VolSurf_FLEX_RB>
0.120863

>  <VolSurf_NCC>
1.0

>  <VolSurf_LOGP n-Oct>
1.636

>  <VolSurf_LOGP c-Hex>
0.91

>  <VolSurf_PSA>
74.0

>  <VolSurf_HSA>
299.601

>  <VolSurf_PSAR>
0.198072

>  <VolSurf_PHSAR>
0.246995

>  <VolSurf_LgD5>
-1.23503

>  <VolSurf_LgD6>
-0.90252

>  <VolSurf_LgD7>
-0.68647

>  <VolSurf_LgD7.5>
-0.435592

>  <VolSurf_LgD8>
-0.0631635

>  <VolSurf_LgD9>
0.811543

>  <VolSurf_LgD10>
1.43828

>  <VolSurf_AUS7.4>
0.0528383

>  <VolSurf_%FU4>
1.21089E-5

>  <VolSurf_%FU5>
7.42198E-4

>  <VolSurf_%FU6>
0.0152362

>  <VolSurf_%FU7>
0.170033

>  <VolSurf_%FU8>
1.69432

>  <VolSurf_%FU9>
14.7163

>  <VolSurf_%FU10>
63.3132

>  <ID>
352

>  <MOKAID>
353

>  <Clearance Route>
uncertain

>  <PC1>
0.49985

>  <PC2>
3.02549

$$$$
Prenalterol
  -OEChem-08301611272D

 16 16  0     1  0  0  0  0  0999 V2000
    0.8675    1.5027    0.0000 C   0  0  0  0  0  0  0  0  0  0  0  0
    0.8675    0.4975    0.0000 C   0  0  0  0  0  0  0  0  0  0  0  0
    0.0000    0.0000    0.0000 C   0  0  0  0  0  0  0  0  0  0  0  0
   -0.8675    0.4975    0.0000 C   0  0  0  0  0  0  0  0  0  0  0  0
   -1.7328   -0.0038    0.0000 O   0  0  0  0  0  0  0  0  0  0  0  0
   -0.8675    1.5027    0.0000 C   0  0  0  0  0  0  0  0  0  0  0  0
    0.0000    2.0104    0.0000 C   0  0  0  0  0  0  0  0  0  0  0  0
    1.7350    2.0001    0.0000 O   0  0  0  0  0  0  0  0  0  0  0  0
    1.7379    3.0001    0.0000 C   0  0  0  0  0  0  0  0  0  0  0  0
    2.6054    3.4976    0.0000 C   0  0  2  0  0  0  0  0  0  0  0  0
    2.6084    4.4976    0.0000 C   0  0  0  0  0  0  0  0  0  0  0  0
    3.4759    4.9950    0.0000 N   0  0  0  0  0  0  0  0  0  0  0  0
    3.4788    5.9950    0.0000 C   0  0  0  0  0  0  0  0  0  0  0  0
    2.6143    6.4976    0.0000 C   0  0  0  0  0  0  0  0  0  0  0  0
    4.3463    6.4925    0.0000 C   0  0  0  0  0  0  0  0  0  0  0  0
    3.4700    2.9950    0.0000 O   0  0  0  0  0  0  0  0  0  0  0  0
  1  7  2  0  0  0  0
  1  2  1  0  0  0  0
  2  3  2  0  0  0  0
  3  4  1  0  0  0  0
  4  5  1  0  0  0  0
  4  6  2  0  0  0  0
  6  7  1  0  0  0  0
  1  8  1  0  0  0  0
  8  9  1  0  0  0  0
  9 10  1  0  0  0  0
 10 11  1  0  0  0  0
 11 12  1  0  0  0  0
 12 13  1  0  0  0  0
 13 14  1  0  0  0  0
 13 15  1  0  0  0  0
 10 16  1  6  0  0  0
M  END
>  <Name>
Prenalterol

>  <CAS #>
57526-81-5

>  <human Clearance (mL/min/kg)>
22.4

>  <Primary mechanism (metabolic, biliary or renal)>
metabolic

>  <seqId>
744.0

>  <Code (mechanism and clearance degree index)>
M1

>  < Five M1 and R1 test groups>
M1_3

>  <formamide>
0

>  <prodrug phosphates>
0

>  <VolSurf_V>
572.375

>  <VolSurf_S>
412.688

>  <VolSurf_R>
1.38694

>  <VolSurf_G>
1.37729

>  <VolSurf_IW1>
0.086876

>  <VolSurf_IW2>
0.231804

>  <VolSurf_IW3>
0.440833

>  <VolSurf_IW4>
0.895179

>  <VolSurf_ID1>
0.0283805

>  <VolSurf_ID2>
0.110318

>  <VolSurf_ID3>
0.265847

>  <VolSurf_ID4>
0.324241

>  <VolSurf_HL1>
2.87624

>  <VolSurf_HL2>
2.92783

>  <VolSurf_A>
3.01582

>  <VolSurf_CP>
0.562794

>  <VolSurf_POL>
27.629

>  <VolSurf_MW>
226.292

>  <VolSurf_FLEX>
1.58349

>  <VolSurf_FLEX_RB>
0.158349

>  <VolSurf_NCC>
1.0

>  <VolSurf_LOGP n-Oct>
1.24

>  <VolSurf_LOGP c-Hex>
-1.222

>  <VolSurf_PSA>
75.47

>  <VolSurf_HSA>
337.218

>  <VolSurf_PSAR>
0.182874

>  <VolSurf_PHSAR>
0.223802

>  <VolSurf_LgD5>
-2.13533

>  <VolSurf_LgD6>
-1.75768

>  <VolSurf_LgD7>
-0.92699

>  <VolSurf_LgD7.5>
-0.448741

>  <VolSurf_LgD8>
0.0276059

>  <VolSurf_LgD9>
0.830718

>  <VolSurf_LgD10>
1.08191

>  <VolSurf_AUS7.4>
0.362748

>  <VolSurf_%FU4>
6.49557E-4

>  <VolSurf_%FU5>
0.00649519

>  <VolSurf_%FU6>
0.064914

>  <VolSurf_%FU7>
0.645368

>  <VolSurf_%FU8>
6.09834

>  <VolSurf_%FU9>
38.9314

>  <VolSurf_%FU10>
69.1973

>  <ID>
353

>  <MOKAID>
354

>  <Clearance Route>
uncertain

>  <PC1>
0.0356019

>  <PC2>
1.81571

$$$$
Probenecid
  -OEChem-08301611272D

 19 19  0     0  0  0  0  0  0999 V2000
    1.7438    5.0001    0.0000 C   0  0  0  0  0  0  0  0  0  0  0  0
    1.7409    4.0001    0.0000 C   0  0  0  0  0  0  0  0  0  0  0  0
    2.6054    3.4976    0.0000 C   0  0  0  0  0  0  0  0  0  0  0  0
    2.6025    2.4976    0.0000 N   0  0  0  0  0  0  0  0  0  0  0  0
    3.4670    1.9950    0.0000 C   0  0  0  0  0  0  0  0  0  0  0  0
    4.3345    2.4925    0.0000 C   0  0  0  0  0  0  0  0  0  0  0  0
    5.1991    1.9899    0.0000 C   0  0  0  0  0  0  0  0  0  0  0  0
    1.7350    2.0001    0.0000 S   0  0  0  0  0  0  0  0  0  0  0  0
    2.2324    1.1326    0.0000 O   0  0  0  0  0  0  0  0  0  0  0  0
    1.2376    2.8676    0.0000 O   0  0  0  0  0  0  0  0  0  0  0  0
    0.8675    1.5027    0.0000 C   0  0  0  0  0  0  0  0  0  0  0  0
    0.8675    0.4975    0.0000 C   0  0  0  0  0  0  0  0  0  0  0  0
    0.0000    0.0000    0.0000 C   0  0  0  0  0  0  0  0  0  0  0  0
   -0.8675    0.4975    0.0000 C   0  0  0  0  0  0  0  0  0  0  0  0
   -0.8675    1.5027    0.0000 C   0  0  0  0  0  0  0  0  0  0  0  0
    0.0000    2.0104    0.0000 C   0  0  0  0  0  0  0  0  0  0  0  0
   -1.7328   -0.0038    0.0000 C   0  0  0  0  0  0  0  0  0  0  0  0
   -2.5995    0.4950    0.0000 O   0  0  0  0  0  0  0  0  0  0  0  0
   -1.7313   -1.0038    0.0000 O   0  0  0  0  0  0  0  0  0  0  0  0
  1  2  1  0  0  0  0
  2  3  1  0  0  0  0
  3  4  1  0  0  0  0
  4  5  1  0  0  0  0
  5  6  1  0  0  0  0
  6  7  1  0  0  0  0
  4  8  1  0  0  0  0
  8  9  2  0  0  0  0
  8 10  2  0  0  0  0
  8 11  1  0  0  0  0
 11 16  2  0  0  0  0
 11 12  1  0  0  0  0
 12 13  2  0  0  0  0
 13 14  1  0  0  0  0
 14 15  2  0  0  0  0
 15 16  1  0  0  0  0
 14 17  1  0  0  0  0
 17 18  2  0  0  0  0
 17 19  1  0  0  0  0
M  END
>  <Name>
Probenecid

>  <CAS #>
57-66-9

>  <human Clearance (mL/min/kg)>
0.25

>  <Primary mechanism (metabolic, biliary or renal)>
metabolism

>  <seqId>
747.0

>  <Code (mechanism and clearance degree index)>
M1

>  < Five M1 and R1 test groups>
M1_2

>  <formamide>
0

>  <prodrug phosphates>
0

>  <VolSurf_V>
651.25

>  <VolSurf_S>
450.432

>  <VolSurf_R>
1.44583

>  <VolSurf_G>
1.38029

>  <VolSurf_IW1>
0.135062

>  <VolSurf_IW2>
0.333128

>  <VolSurf_IW3>
0.874683

>  <VolSurf_IW4>
1.97393

>  <VolSurf_ID1>
0.0615278

>  <VolSurf_ID2>
0.0690746

>  <VolSurf_ID3>
0.0691522

>  <VolSurf_ID4>
0.068985

>  <VolSurf_HL1>
5.38217

>  <VolSurf_HL2>
4.23684

>  <VolSurf_A>
5.4132

>  <VolSurf_CP>
0.481351

>  <VolSurf_POL>
28.246

>  <VolSurf_MW>
284.351

>  <VolSurf_FLEX>
1.49605

>  <VolSurf_FLEX_RB>
0.166228

>  <VolSurf_NCC>
1.0

>  <VolSurf_LOGP n-Oct>
3.272

>  <VolSurf_LOGP c-Hex>
-1.647

>  <VolSurf_PSA>
91.2925

>  <VolSurf_HSA>
359.139

>  <VolSurf_PSAR>
0.202678

>  <VolSurf_PHSAR>
0.254198

>  <VolSurf_LgD5>
1.73461

>  <VolSurf_LgD6>
0.794931

>  <VolSurf_LgD7>
0.111354

>  <VolSurf_LgD7.5>
-0.0383063

>  <VolSurf_LgD8>
-0.0988575

>  <VolSurf_LgD9>
-0.126783

>  <VolSurf_LgD10>
-0.129678

>  <VolSurf_AUS7.4>
0.0

>  <VolSurf_%FU4>
22.7637

>  <VolSurf_%FU5>
2.86291

>  <VolSurf_%FU6>
0.293863

>  <VolSurf_%FU7>
0.0294642

>  <VolSurf_%FU8>
0.0029472

>  <VolSurf_%FU9>
2.94728E-4

>  <VolSurf_%FU10>
2.94729E-5

>  <ID>
354

>  <MOKAID>
355

>  <Clearance Route>
uncertain

>  <PC1>
0.42894

>  <PC2>
1.39856

$$$$
Promazine
  -OEChem-08301611272D

 20 22  0     0  0  0  0  0  0999 V2000
    4.3226    4.5113    0.0000 C   0  0  0  0  0  0  0  0  0  0  0  0
    4.3252    3.5113    0.0000 N   0  0  0  0  0  0  0  0  0  0  0  0
    5.1926    3.0136    0.0000 C   0  0  0  0  0  0  0  0  0  0  0  0
    3.4605    3.0090    0.0000 C   0  0  0  0  0  0  0  0  0  0  0  0
    3.4632    2.0090    0.0000 C   0  0  0  0  0  0  0  0  0  0  0  0
    2.5985    1.5067    0.0000 C   0  0  0  0  0  0  0  0  0  0  0  0
    2.6012    0.5067    0.0000 N   0  0  0  0  0  0  0  0  0  0  0  0
    1.7358    0.0000    0.0000 C   0  0  0  0  0  0  0  0  0  0  0  0
    0.8679    0.5079    0.0000 C   0  0  0  0  0  0  0  0  0  0  0  0
    0.0000    0.0000    0.0000 C   0  0  0  0  0  0  0  0  0  0  0  0
   -0.0000   -1.0057    0.0000 C   0  0  0  0  0  0  0  0  0  0  0  0
    0.8679   -1.5033    0.0000 C   0  0  0  0  0  0  0  0  0  0  0  0
    1.7371   -1.0057    0.0000 C   0  0  0  0  0  0  0  0  0  0  0  0
    2.6038   -1.5046    0.0000 S   0  0  0  0  0  0  0  0  0  0  0  0
    3.4738   -1.0059    0.0000 C   0  0  0  0  0  0  0  0  0  0  0  0
    4.3422   -1.5068    0.0000 C   0  0  0  0  0  0  0  0  0  0  0  0
    5.2158   -1.0053    0.0000 C   0  0  0  0  0  0  0  0  0  0  0  0
    5.2154    0.0028    0.0000 C   0  0  0  0  0  0  0  0  0  0  0  0
    4.3415    0.5094    0.0000 C   0  0  0  0  0  0  0  0  0  0  0  0
    3.4735    0.0022    0.0000 C   0  0  0  0  0  0  0  0  0  0  0  0
  1  2  1  0  0  0  0
  2  3  1  0  0  0  0
  2  4  1  0  0  0  0
  4  5  1  0  0  0  0
  5  6  1  0  0  0  0
  6  7  1  0  0  0  0
  7 20  1  0  0  0  0
  7  8  1  0  0  0  0
  8 13  2  0  0  0  0
  8  9  1  0  0  0  0
  9 10  2  0  0  0  0
 10 11  1  0  0  0  0
 11 12  2  0  0  0  0
 12 13  1  0  0  0  0
 13 14  1  0  0  0  0
 14 15  1  0  0  0  0
 15 20  2  0  0  0  0
 15 16  1  0  0  0  0
 16 17  2  0  0  0  0
 17 18  1  0  0  0  0
 18 19  2  0  0  0  0
 19 20  1  0  0  0  0
M  END
>  <Name>
Promazine

>  <CAS #>
58-40-2

>  <human Clearance (mL/min/kg)>
14.0

>  <Primary mechanism (metabolic, biliary or renal)>
metabolic

>  <seqId>
751.0

>  <Code (mechanism and clearance degree index)>
M1

>  < Five M1 and R1 test groups>
M1_1

>  <formamide>
0

>  <prodrug phosphates>
0

>  <VolSurf_V>
697.5

>  <VolSurf_S>
470.654

>  <VolSurf_R>
1.48198

>  <VolSurf_G>
1.37652

>  <VolSurf_IW1>
0.0271046

>  <VolSurf_IW2>
0.143123

>  <VolSurf_IW3>
0.903865

>  <VolSurf_IW4>
1.20068

>  <VolSurf_ID1>
0.0153825

>  <VolSurf_ID2>
0.0610264

>  <VolSurf_ID3>
0.112942

>  <VolSurf_ID4>
0.138966

>  <VolSurf_HL1>
0.0895238

>  <VolSurf_HL2>
0.0463576

>  <VolSurf_A>
6.16498

>  <VolSurf_CP>
13.5441

>  <VolSurf_POL>
35.946

>  <VolSurf_MW>
285.427

>  <VolSurf_FLEX>
1.10484

>  <VolSurf_FLEX_RB>
0.184141

>  <VolSurf_NCC>
1.0

>  <VolSurf_LOGP n-Oct>
4.449

>  <VolSurf_LOGP c-Hex>
3.755

>  <VolSurf_PSA>
26.19

>  <VolSurf_HSA>
444.464

>  <VolSurf_PSAR>
0.055646

>  <VolSurf_PHSAR>
0.0589249

>  <VolSurf_LgD5>
0.631987

>  <VolSurf_LgD6>
1.44653

>  <VolSurf_LgD7>
2.41691

>  <VolSurf_LgD7.5>
2.90628

>  <VolSurf_LgD8>
3.37957

>  <VolSurf_LgD9>
4.13218

>  <VolSurf_LgD10>
4.40469

>  <VolSurf_AUS7.4>
0.474803

>  <VolSurf_%FU4>
4.55457E-4

>  <VolSurf_%FU5>
0.0084286

>  <VolSurf_%FU6>
0.0920462

>  <VolSurf_%FU7>
0.921388

>  <VolSurf_%FU8>
8.51564

>  <VolSurf_%FU9>
48.2112

>  <VolSurf_%FU10>
90.3

>  <ID>
355

>  <MOKAID>
356

>  <Clearance Route>
metabolic

>  <PC1>
3.6122099999999997

>  <PC2>
0.0918635

$$$$
Promethazine
  -OEChem-08301611272D

 20 22  0     1  0  0  0  0  0999 V2000
    4.3306    1.5113    0.0000 C   0  0  0  0  0  0  0  0  0  0  0  0
    3.4632    2.0090    0.0000 C   0  0  3  0  0  0  0  0  0  0  0  0
    2.5985    1.5067    0.0000 C   0  0  0  0  0  0  0  0  0  0  0  0
    2.6012    0.5067    0.0000 N   0  0  0  0  0  0  0  0  0  0  0  0
    1.7358    0.0000    0.0000 C   0  0  0  0  0  0  0  0  0  0  0  0
    0.8679    0.5079    0.0000 C   0  0  0  0  0  0  0  0  0  0  0  0
    0.0000    0.0000    0.0000 C   0  0  0  0  0  0  0  0  0  0  0  0
   -0.0000   -1.0057    0.0000 C   0  0  0  0  0  0  0  0  0  0  0  0
    0.8679   -1.5033    0.0000 C   0  0  0  0  0  0  0  0  0  0  0  0
    1.7371   -1.0057    0.0000 C   0  0  0  0  0  0  0  0  0  0  0  0
    2.6038   -1.5046    0.0000 S   0  0  0  0  0  0  0  0  0  0  0  0
    3.4738   -1.0059    0.0000 C   0  0  0  0  0  0  0  0  0  0  0  0
    4.3422   -1.5068    0.0000 C   0  0  0  0  0  0  0  0  0  0  0  0
    5.2158   -1.0053    0.0000 C   0  0  0  0  0  0  0  0  0  0  0  0
    5.2154    0.0028    0.0000 C   0  0  0  0  0  0  0  0  0  0  0  0
    4.3415    0.5094    0.0000 C   0  0  0  0  0  0  0  0  0  0  0  0
    3.4735    0.0022    0.0000 C   0  0  0  0  0  0  0  0  0  0  0  0
    3.4605    3.0090    0.0000 N   0  0  0  0  0  0  0  0  0  0  0  0
    2.5932    3.5067    0.0000 C   0  0  0  0  0  0  0  0  0  0  0  0
    4.3252    3.5113    0.0000 C   0  0  0  0  0  0  0  0  0  0  0  0
  1  2  1  0  0  0  0
  2  3  1  0  0  0  0
  3  4  1  0  0  0  0
  4 17  1  0  0  0  0
  4  5  1  0  0  0  0
  5 10  2  0  0  0  0
  5  6  1  0  0  0  0
  6  7  2  0  0  0  0
  7  8  1  0  0  0  0
  8  9  2  0  0  0  0
  9 10  1  0  0  0  0
 10 11  1  0  0  0  0
 11 12  1  0  0  0  0
 12 17  2  0  0  0  0
 12 13  1  0  0  0  0
 13 14  2  0  0  0  0
 14 15  1  0  0  0  0
 15 16  2  0  0  0  0
 16 17  1  0  0  0  0
  2 18  1  0  0  0  0
 18 19  1  0  0  0  0
 18 20  1  0  0  0  0
M  END
>  <Name>
Promethazine

>  <CAS #>
60-87-7

>  <human Clearance (mL/min/kg)>
14.0

>  <Primary mechanism (metabolic, biliary or renal)>
metabolic

>  <seqId>
752.0

>  <Code (mechanism and clearance degree index)>
M1

>  < Five M1 and R1 test groups>
M1_2

>  <formamide>
0

>  <prodrug phosphates>
0

>  <VolSurf_V>
677.0

>  <VolSurf_S>
449.283

>  <VolSurf_R>
1.50685

>  <VolSurf_G>
1.32271

>  <VolSurf_IW1>
0.0263757

>  <VolSurf_IW2>
0.142828

>  <VolSurf_IW3>
0.911525

>  <VolSurf_IW4>
1.2138

>  <VolSurf_ID1>
0.0168908

>  <VolSurf_ID2>
0.0790392

>  <VolSurf_ID3>
0.133381

>  <VolSurf_ID4>
0.179659

>  <VolSurf_HL1>
0.0672646

>  <VolSurf_HL2>
0.0413534

>  <VolSurf_A>
5.83303

>  <VolSurf_CP>
12.3307

>  <VolSurf_POL>
35.946

>  <VolSurf_MW>
285.427

>  <VolSurf_FLEX>
0.9238

>  <VolSurf_FLEX_RB>
0.153967

>  <VolSurf_NCC>
1.0

>  <VolSurf_LOGP n-Oct>
4.219

>  <VolSurf_LOGP c-Hex>
4.476

>  <VolSurf_PSA>
26.19

>  <VolSurf_HSA>
423.093

>  <VolSurf_PSAR>
0.0582929

>  <VolSurf_PHSAR>
0.0619013

>  <VolSurf_LgD5>
0.351038

>  <VolSurf_LgD6>
1.14592

>  <VolSurf_LgD7>
2.06664

>  <VolSurf_LgD7.5>
2.55268

>  <VolSurf_LgD8>
3.03059

>  <VolSurf_LgD9>
3.83044

>  <VolSurf_LgD10>
4.16031

>  <VolSurf_AUS7.4>
0.378957

>  <VolSurf_%FU4>
3.41561E-5

>  <VolSurf_%FU5>
0.00236378

>  <VolSurf_%FU6>
0.0579133

>  <VolSurf_%FU7>
0.673287

>  <VolSurf_%FU8>
6.45076

>  <VolSurf_%FU9>
40.8547

>  <VolSurf_%FU10>
87.3557

>  <ID>
356

>  <MOKAID>
357

>  <Clearance Route>
metabolic

>  <PC1>
3.41645

>  <PC2>
0.17521099999999998

$$$$
Propafenone
  -OEChem-08301611272D

 25 26  0     1  0  0  0  0  0999 V2000
    5.1904   -6.0050    0.0000 C   0  0  0  0  0  0  0  0  0  0  0  0
    5.1918   -5.0050    0.0000 C   0  0  0  0  0  0  0  0  0  0  0  0
    4.3265   -4.5038    0.0000 C   0  0  0  0  0  0  0  0  0  0  0  0
    4.3280   -3.5038    0.0000 N   0  0  0  0  0  0  0  0  0  0  0  0
    3.4627   -3.0025    0.0000 C   0  0  0  0  0  0  0  0  0  0  0  0
    3.4641   -2.0025    0.0000 C   0  0  3  0  0  0  0  0  0  0  0  0
    4.3309   -1.5038    0.0000 O   0  0  0  0  0  0  0  0  0  0  0  0
    2.5988   -1.5013    0.0000 C   0  0  0  0  0  0  0  0  0  0  0  0
    2.6003   -0.5013    0.0000 O   0  0  0  0  0  0  0  0  0  0  0  0
    1.7350    0.0000    0.0000 C   0  0  0  0  0  0  0  0  0  0  0  0
    0.8675   -0.4975    0.0000 C   0  0  0  0  0  0  0  0  0  0  0  0
    0.0000    0.0000    0.0000 C   0  0  0  0  0  0  0  0  0  0  0  0
   -0.0000    1.0052    0.0000 C   0  0  0  0  0  0  0  0  0  0  0  0
    0.8675    1.5129    0.0000 C   0  0  0  0  0  0  0  0  0  0  0  0
    1.7350    1.0052    0.0000 C   0  0  0  0  0  0  0  0  0  0  0  0
    2.6025    1.5026    0.0000 C   0  0  0  0  0  0  0  0  0  0  0  0
    3.4670    1.0001    0.0000 O   0  0  0  0  0  0  0  0  0  0  0  0
    2.6054    2.5026    0.0000 C   0  0  0  0  0  0  0  0  0  0  0  0
    3.4729    3.0001    0.0000 C   0  0  0  0  0  0  0  0  0  0  0  0
    3.4759    4.0001    0.0000 C   0  0  0  0  0  0  0  0  0  0  0  0
    2.6054    4.5027    0.0000 C   0  0  0  0  0  0  0  0  0  0  0  0
    2.6083    5.5027    0.0000 C   0  0  0  0  0  0  0  0  0  0  0  0
    3.4729    6.0052    0.0000 C   0  0  0  0  0  0  0  0  0  0  0  0
    4.3434    5.5026    0.0000 C   0  0  0  0  0  0  0  0  0  0  0  0
    4.3493    4.4975    0.0000 C   0  0  0  0  0  0  0  0  0  0  0  0
  1  2  1  0  0  0  0
  2  3  1  0  0  0  0
  3  4  1  0  0  0  0
  4  5  1  0  0  0  0
  5  6  1  0  0  0  0
  6  7  1  0  0  0  0
  6  8  1  0  0  0  0
  8  9  1  0  0  0  0
  9 10  1  0  0  0  0
 10 15  2  0  0  0  0
 10 11  1  0  0  0  0
 11 12  2  0  0  0  0
 12 13  1  0  0  0  0
 13 14  2  0  0  0  0
 14 15  1  0  0  0  0
 15 16  1  0  0  0  0
 16 17  2  0  0  0  0
 16 18  1  0  0  0  0
 18 19  1  0  0  0  0
 19 20  1  0  0  0  0
 20 25  2  0  0  0  0
 20 21  1  0  0  0  0
 21 22  2  0  0  0  0
 22 23  1  0  0  0  0
 23 24  2  0  0  0  0
 24 25  1  0  0  0  0
M  END
>  <Name>
Propafenone

>  <CAS #>
54063-53-5

>  <human Clearance (mL/min/kg)>
16.0

>  <Primary mechanism (metabolic, biliary or renal)>
metabolic

>  <seqId>
753.0

>  <Code (mechanism and clearance degree index)>
M1

>  < Five M1 and R1 test groups>
M1_4

>  <formamide>
0

>  <prodrug phosphates>
0

>  <VolSurf_V>
875.0

>  <VolSurf_S>
601.234

>  <VolSurf_R>
1.45534

>  <VolSurf_G>
1.58428

>  <VolSurf_IW1>
0.0274289

>  <VolSurf_IW2>
0.189302

>  <VolSurf_IW3>
0.417395

>  <VolSurf_IW4>
0.542568

>  <VolSurf_ID1>
0.0406984

>  <VolSurf_ID2>
0.126882

>  <VolSurf_ID3>
0.200602

>  <VolSurf_ID4>
0.249355

>  <VolSurf_HL1>
1.07615

>  <VolSurf_HL2>
1.20553

>  <VolSurf_A>
5.87313

>  <VolSurf_CP>
0.866596

>  <VolSurf_POL>
41.952

>  <VolSurf_MW>
342.452

>  <VolSurf_FLEX>
3.19747

>  <VolSurf_FLEX_RB>
0.245959

>  <VolSurf_NCC>
1.0

>  <VolSurf_LOGP n-Oct>
3.266

>  <VolSurf_LOGP c-Hex>
2.994

>  <VolSurf_PSA>
72.31

>  <VolSurf_HSA>
528.924

>  <VolSurf_PSAR>
0.120269

>  <VolSurf_PHSAR>
0.136711

>  <VolSurf_LgD5>
-0.443826

>  <VolSurf_LgD6>
0.196975

>  <VolSurf_LgD7>
1.13439

>  <VolSurf_LgD7.5>
1.62273

>  <VolSurf_LgD8>
2.10043

>  <VolSurf_LgD9>
2.89196

>  <VolSurf_LgD10>
3.21038

>  <VolSurf_AUS7.4>
0.398802

>  <VolSurf_%FU4>
7.31772E-4

>  <VolSurf_%FU5>
0.00731724

>  <VolSurf_%FU6>
0.0731242

>  <VolSurf_%FU7>
0.726461

>  <VolSurf_%FU8>
6.81879

>  <VolSurf_%FU9>
42.2559

>  <VolSurf_%FU10>
87.9775

>  <ID>
357

>  <MOKAID>
358

>  <Clearance Route>
possible billary

>  <PC1>
1.5790799999999998

>  <PC2>
-1.1767299999999998

$$$$
Propiverine
  -OEChem-08301611272D

 27 29  0     0  0  0  0  0  0999 V2000
   -0.8840   -2.5000    0.0000 C   0  0  0  0  0  0  0  0  0  0  0  0
   -1.3840   -3.3720    0.0000 C   0  0  0  0  0  0  0  0  0  0  0  0
   -2.3840   -3.3721    0.0000 C   0  0  0  0  0  0  0  0  0  0  0  0
   -2.8891   -2.5089    0.0000 C   0  0  0  0  0  0  0  0  0  0  0  0
   -2.3891   -1.6369    0.0000 C   0  0  0  0  0  0  0  0  0  0  0  0
   -1.3840   -1.6280    0.0000 C   0  0  0  0  0  0  0  0  0  0  0  0
    0.8660   -2.5000    0.0000 C   0  0  0  0  0  0  0  0  0  0  0  0
    0.8660   -1.5000    0.0000 C   0  0  0  0  0  0  0  0  0  0  0  0
    1.7321   -1.0000    0.0000 O   0  0  0  0  0  0  0  0  0  0  0  0
   -0.0000   -1.0000    0.0000 O   0  0  0  0  0  0  0  0  0  0  0  0
    0.0000    0.0000    0.0000 C   0  0  0  0  0  0  0  0  0  0  0  0
   -0.8675    0.4975    0.0000 C   0  0  0  0  0  0  0  0  0  0  0  0
   -0.8675    1.5027    0.0000 C   0  0  0  0  0  0  0  0  0  0  0  0
    0.0000    2.0104    0.0000 N   0  0  0  0  0  0  0  0  0  0  0  0
    0.8675    1.5027    0.0000 C   0  0  0  0  0  0  0  0  0  0  0  0
    0.8675    0.4975    0.0000 C   0  0  0  0  0  0  0  0  0  0  0  0
    0.0000    3.0104    0.0000 C   0  0  0  0  0  0  0  0  0  0  0  0
    0.8660   -3.5000    0.0000 O   0  0  0  0  0  0  0  0  0  0  0  0
    1.7321   -4.0000    0.0000 C   0  0  0  0  0  0  0  0  0  0  0  0
    1.7321   -5.0000    0.0000 C   0  0  0  0  0  0  0  0  0  0  0  0
    2.5981   -5.5000    0.0000 C   0  0  0  0  0  0  0  0  0  0  0  0
    2.6160   -2.5000    0.0000 C   0  0  0  0  0  0  0  0  0  0  0  0
    3.1161   -1.6280    0.0000 C   0  0  0  0  0  0  0  0  0  0  0  0
    4.1161   -1.6279    0.0000 C   0  0  0  0  0  0  0  0  0  0  0  0
    4.6212   -2.4911    0.0000 C   0  0  0  0  0  0  0  0  0  0  0  0
    4.1211   -3.3631    0.0000 C   0  0  0  0  0  0  0  0  0  0  0  0
    3.1160   -3.3720    0.0000 C   0  0  0  0  0  0  0  0  0  0  0  0
  1  6  2  0  0  0  0
  1  2  1  0  0  0  0
  2  3  2  0  0  0  0
  3  4  1  0  0  0  0
  4  5  2  0  0  0  0
  5  6  1  0  0  0  0
  1  7  1  0  0  0  0
  7  8  1  0  0  0  0
  8  9  2  0  0  0  0
  8 10  1  0  0  0  0
 10 11  1  0  0  0  0
 11 16  1  0  0  0  0
 11 12  1  0  0  0  0
 12 13  1  0  0  0  0
 13 14  1  0  0  0  0
 14 15  1  0  0  0  0
 15 16  1  0  0  0  0
 14 17  1  0  0  0  0
  7 18  1  0  0  0  0
 18 19  1  0  0  0  0
 19 20  1  0  0  0  0
 20 21  1  0  0  0  0
  7 22  1  0  0  0  0
 22 27  2  0  0  0  0
 22 23  1  0  0  0  0
 23 24  2  0  0  0  0
 24 25  1  0  0  0  0
 25 26  2  0  0  0  0
 26 27  1  0  0  0  0
M  END
>  <Name>
Propiverine

>  <CAS #>
60569-19-9

>  <human Clearance (mL/min/kg)>
2.94

>  <Primary mechanism (metabolic, biliary or renal)>
metabolic

>  <seqId>
754.0

>  <Code (mechanism and clearance degree index)>
M1

>  < Five M1 and R1 test groups>
M1_3

>  <formamide>
0

>  <prodrug phosphates>
0

>  <VolSurf_V>
893.5

>  <VolSurf_S>
588.482

>  <VolSurf_R>
1.51831

>  <VolSurf_G>
1.50238

>  <VolSurf_IW1>
0.0252667

>  <VolSurf_IW2>
0.171868

>  <VolSurf_IW3>
0.562451

>  <VolSurf_IW4>
0.859807

>  <VolSurf_ID1>
0.0199945

>  <VolSurf_ID2>
0.0831771

>  <VolSurf_ID3>
0.173321

>  <VolSurf_ID4>
0.231382

>  <VolSurf_HL1>
1.16854

>  <VolSurf_HL2>
1.62037

>  <VolSurf_A>
5.74788

>  <VolSurf_CP>
0.943743

>  <VolSurf_POL>
44.139

>  <VolSurf_MW>
368.489

>  <VolSurf_FLEX>
1.93607

>  <VolSurf_FLEX_RB>
0.193607

>  <VolSurf_NCC>
1.0

>  <VolSurf_LOGP n-Oct>
4.676

>  <VolSurf_LOGP c-Hex>
5.369

>  <VolSurf_PSA>
50.24

>  <VolSurf_HSA>
538.242

>  <VolSurf_PSAR>
0.0853722

>  <VolSurf_PHSAR>
0.0933409

>  <VolSurf_LgD5>
1.30643

>  <VolSurf_LgD6>
1.82917

>  <VolSurf_LgD7>
2.72806

>  <VolSurf_LgD7.5>
3.20957

>  <VolSurf_LgD8>
3.67622

>  <VolSurf_LgD9>
4.39684

>  <VolSurf_LgD10>
4.63849

>  <VolSurf_AUS7.4>
0.532544

>  <VolSurf_%FU4>
0.00110822

>  <VolSurf_%FU5>
0.0110811

>  <VolSurf_%FU6>
0.1107

>  <VolSurf_%FU7>
1.09608

>  <VolSurf_%FU8>
9.97664

>  <VolSurf_%FU9>
52.5668

>  <VolSurf_%FU10>
91.7234

>  <ID>
358

>  <MOKAID>
359

>  <Clearance Route>
metabolic

>  <PC1>
3.25942

>  <PC2>
-1.34366

$$$$
Propofol
  -OEChem-08301611272D

 13 13  0     0  0  0  0  0  0999 V2000
   -2.5995    1.4976    0.0000 C   0  0  0  0  0  0  0  0  0  0  0  0
   -1.7350    2.0001    0.0000 C   0  0  0  0  0  0  0  0  0  0  0  0
   -1.7379    3.0001    0.0000 C   0  0  0  0  0  0  0  0  0  0  0  0
   -0.8675    1.5027    0.0000 C   0  0  0  0  0  0  0  0  0  0  0  0
   -0.8675    0.4975    0.0000 C   0  0  0  0  0  0  0  0  0  0  0  0
    0.0000    0.0000    0.0000 C   0  0  0  0  0  0  0  0  0  0  0  0
    0.8675    0.4975    0.0000 C   0  0  0  0  0  0  0  0  0  0  0  0
    0.8675    1.5027    0.0000 C   0  0  0  0  0  0  0  0  0  0  0  0
    1.7350    2.0001    0.0000 C   0  0  0  0  0  0  0  0  0  0  0  0
    1.7379    3.0001    0.0000 C   0  0  0  0  0  0  0  0  0  0  0  0
    2.5995    1.4976    0.0000 C   0  0  0  0  0  0  0  0  0  0  0  0
   -0.0000    2.0104    0.0000 C   0  0  0  0  0  0  0  0  0  0  0  0
   -0.0000    3.0104    0.0000 O   0  0  0  0  0  0  0  0  0  0  0  0
  1  2  1  0  0  0  0
  2  3  1  0  0  0  0
  2  4  1  0  0  0  0
  4 12  2  0  0  0  0
  4  5  1  0  0  0  0
  5  6  2  0  0  0  0
  6  7  1  0  0  0  0
  7  8  2  0  0  0  0
  8  9  1  0  0  0  0
  9 10  1  0  0  0  0
  9 11  1  0  0  0  0
  8 12  1  0  0  0  0
 12 13  1  0  0  0  0
M  END
>  <Name>
Propofol

>  <CAS #>
2078-54-8

>  <human Clearance (mL/min/kg)>
36.0

>  <Primary mechanism (metabolic, biliary or renal)>
metabolic

>  <seqId>
755.0

>  <Code (mechanism and clearance degree index)>
M1

>  < Five M1 and R1 test groups>
M1_3

>  <formamide>
0

>  <prodrug phosphates>
0

>  <VolSurf_V>
510.625

>  <VolSurf_S>
361.395

>  <VolSurf_R>
1.41293

>  <VolSurf_G>
1.26516

>  <VolSurf_IW1>
0.0492837

>  <VolSurf_IW2>
0.423728

>  <VolSurf_IW3>
1.05989

>  <VolSurf_IW4>
1.43386

>  <VolSurf_ID1>
0.0410901

>  <VolSurf_ID2>
0.0829107

>  <VolSurf_ID3>
0.113415

>  <VolSurf_ID4>
0.0984975

>  <VolSurf_HL1>
0.339483

>  <VolSurf_HL2>
0.272

>  <VolSurf_A>
5.59028

>  <VolSurf_CP>
4.05478

>  <VolSurf_POL>
22.081

>  <VolSurf_MW>
178.271

>  <VolSurf_FLEX>
0.451369

>  <VolSurf_FLEX_RB>
0.0644813

>  <VolSurf_NCC>
0.0

>  <VolSurf_LOGP n-Oct>
4.207

>  <VolSurf_LOGP c-Hex>
2.368

>  <VolSurf_PSA>
20.23

>  <VolSurf_HSA>
341.165

>  <VolSurf_PSAR>
0.0559776

>  <VolSurf_PHSAR>
0.0592969

>  <VolSurf_LgD5>
4.207

>  <VolSurf_LgD6>
4.20699

>  <VolSurf_LgD7>
4.20693

>  <VolSurf_LgD7.5>
4.20676

>  <VolSurf_LgD8>
4.20625

>  <VolSurf_LgD9>
4.19958

>  <VolSurf_LgD10>
4.13796

>  <VolSurf_AUS7.4>
2.0

>  <VolSurf_%FU4>
100.0

>  <VolSurf_%FU5>
99.9998

>  <VolSurf_%FU6>
99.9983

>  <VolSurf_%FU7>
99.9827

>  <VolSurf_%FU8>
99.8278

>  <VolSurf_%FU9>
98.304

>  <VolSurf_%FU10>
85.2857

>  <ID>
359

>  <MOKAID>
360

>  <Clearance Route>
metabolic

>  <PC1>
6.3440900000000005

>  <PC2>
2.2029900000000002

$$$$
Propranolol
  -OEChem-08301611272D

 19 20  0     1  0  0  0  0  0999 V2000
    1.7098    7.0171    0.0000 C   0  0  0  0  0  0  0  0  0  0  0  0
    1.7124    6.0171    0.0000 C   0  0  0  0  0  0  0  0  0  0  0  0
    2.5798    5.5194    0.0000 C   0  0  0  0  0  0  0  0  0  0  0  0
    0.8478    5.5148    0.0000 N   0  0  0  0  0  0  0  0  0  0  0  0
    0.8504    4.5148    0.0000 C   0  0  0  0  0  0  0  0  0  0  0  0
   -0.0143    4.0125    0.0000 C   0  0  3  0  0  0  0  0  0  0  0  0
   -0.8816    4.5102    0.0000 O   0  0  0  0  0  0  0  0  0  0  0  0
   -0.0116    3.0125    0.0000 C   0  0  0  0  0  0  0  0  0  0  0  0
   -0.8763    2.5102    0.0000 O   0  0  0  0  0  0  0  0  0  0  0  0
   -0.8736    1.5102    0.0000 C   0  0  0  0  0  0  0  0  0  0  0  0
   -0.0013    1.0057    0.0000 C   0  0  0  0  0  0  0  0  0  0  0  0
    0.0000    0.0000    0.0000 C   0  0  0  0  0  0  0  0  0  0  0  0
   -0.8710   -0.5011    0.0000 C   0  0  0  0  0  0  0  0  0  0  0  0
   -1.7377   -0.0022    0.0000 C   0  0  0  0  0  0  0  0  0  0  0  0
   -2.6069   -0.5000    0.0000 C   0  0  0  0  0  0  0  0  0  0  0  0
   -3.4748   -0.0022    0.0000 C   0  0  0  0  0  0  0  0  0  0  0  0
   -3.4748    1.0035    0.0000 C   0  0  0  0  0  0  0  0  0  0  0  0
   -2.6069    1.5113    0.0000 C   0  0  0  0  0  0  0  0  0  0  0  0
   -1.7390    1.0035    0.0000 C   0  0  0  0  0  0  0  0  0  0  0  0
  1  2  1  0  0  0  0
  2  3  1  0  0  0  0
  2  4  1  0  0  0  0
  4  5  1  0  0  0  0
  5  6  1  0  0  0  0
  6  7  1  0  0  0  0
  6  8  1  0  0  0  0
  8  9  1  0  0  0  0
  9 10  1  0  0  0  0
 10 19  2  0  0  0  0
 10 11  1  0  0  0  0
 11 12  2  0  0  0  0
 12 13  1  0  0  0  0
 13 14  2  0  0  0  0
 14 19  1  0  0  0  0
 14 15  1  0  0  0  0
 15 16  2  0  0  0  0
 16 17  1  0  0  0  0
 17 18  2  0  0  0  0
 18 19  1  0  0  0  0
M  END
>  <Name>
Propranolol

>  <CAS #>
525-66-6

>  <human Clearance (mL/min/kg)>
12.0

>  <Primary mechanism (metabolic, biliary or renal)>
metabolic

>  <seqId>
757.0

>  <Code (mechanism and clearance degree index)>
M1

>  < Five M1 and R1 test groups>
M1_2

>  <formamide>
0

>  <prodrug phosphates>
0

>  <VolSurf_V>
668.125

>  <VolSurf_S>
468.262

>  <VolSurf_R>
1.42682

>  <VolSurf_G>
1.4261

>  <VolSurf_IW1>
0.0453824

>  <VolSurf_IW2>
0.262052

>  <VolSurf_IW3>
0.579638

>  <VolSurf_IW4>
0.800477

>  <VolSurf_ID1>
0.0500404

>  <VolSurf_ID2>
0.158755

>  <VolSurf_ID3>
0.277034

>  <VolSurf_ID4>
0.319976

>  <VolSurf_HL1>
1.08943

>  <VolSurf_HL2>
1.10989

>  <VolSurf_A>
5.80903

>  <VolSurf_CP>
0.838391

>  <VolSurf_POL>
33.174

>  <VolSurf_MW>
260.351

>  <VolSurf_FLEX>
1.64478

>  <VolSurf_FLEX_RB>
0.182753

>  <VolSurf_NCC>
1.0

>  <VolSurf_LOGP n-Oct>
2.715

>  <VolSurf_LOGP c-Hex>
1.668

>  <VolSurf_PSA>
55.24

>  <VolSurf_HSA>
413.022

>  <VolSurf_PSAR>
0.117968

>  <VolSurf_PHSAR>
0.133746

>  <VolSurf_LgD5>
-0.660326

>  <VolSurf_LgD6>
-0.282679

>  <VolSurf_LgD7>
0.548009

>  <VolSurf_LgD7.5>
1.02626

>  <VolSurf_LgD8>
1.50266

>  <VolSurf_LgD9>
2.31049

>  <VolSurf_LgD10>
2.65284

>  <VolSurf_AUS7.4>
0.362752

>  <VolSurf_%FU4>
6.49557E-4

>  <VolSurf_%FU5>
0.00649519

>  <VolSurf_%FU6>
0.064914

>  <VolSurf_%FU7>
0.645369

>  <VolSurf_%FU8>
6.09942

>  <VolSurf_%FU9>
39.3778

>  <VolSurf_%FU10>
86.6588

>  <ID>
360

>  <MOKAID>
361

>  <Clearance Route>
metabolic

>  <PC1>
1.5561200000000002

>  <PC2>
1.15665

$$$$
Quinaprilat
  -OEChem-08301611272D

 30 32  0     1  0  0  0  0  0999 V2000
    3.4955    3.0014    0.0000 C   0  0  0  0  0  0  0  0  0  0  0  0
    4.3588    2.4968    0.0000 C   0  0  2  0  0  0  0  0  0  0  0  0
    5.2275    2.9921    0.0000 N   0  0  0  0  0  0  0  0  0  0  0  0
    5.2328    3.9921    0.0000 C   0  0  1  0  0  0  0  0  0  0  0  0
    4.3695    4.4967    0.0000 C   0  0  0  0  0  0  0  0  0  0  0  0
    3.5008    4.0014    0.0000 C   0  0  0  0  0  0  0  0  0  0  0  0
    2.6375    4.5060    0.0000 C   0  0  0  0  0  0  0  0  0  0  0  0
    1.7657    4.0054    0.0000 C   0  0  0  0  0  0  0  0  0  0  0  0
    0.9023    4.5100    0.0000 C   0  0  0  0  0  0  0  0  0  0  0  0
    0.9018    5.5101    0.0000 C   0  0  0  0  0  0  0  0  0  0  0  0
    1.7735    6.0106    0.0000 C   0  0  0  0  0  0  0  0  0  0  0  0
    2.6458    5.5111    0.0000 C   0  0  0  0  0  0  0  0  0  0  0  0
    6.1015    4.4875    0.0000 C   0  0  0  0  0  0  0  0  0  0  0  0
    6.9649    3.9829    0.0000 O   0  0  0  0  0  0  0  0  0  0  0  0
    6.1068    5.4875    0.0000 O   0  0  0  0  0  0  0  0  0  0  0  0
    4.3535    1.4968    0.0000 C   0  0  0  0  0  0  0  0  0  0  0  0
    5.2168    0.9922    0.0000 O   0  0  0  0  0  0  0  0  0  0  0  0
    3.4848    1.0014    0.0000 N   0  0  0  0  0  0  0  0  0  0  0  0
    2.6125    1.5125    0.0000 C   0  0  0  0  0  0  0  0  0  0  0  0
    1.7414    1.0089    0.0000 C   0  0  0  0  0  0  0  0  0  0  0  0
    0.8707    1.5185    0.0000 C   0  0  0  0  0  0  0  0  0  0  0  0
    0.0000    1.0089    0.0000 C   0  0  0  0  0  0  0  0  0  0  0  0
    0.0000    0.0000    0.0000 C   0  0  0  0  0  0  0  0  0  0  0  0
    0.8707   -0.4993    0.0000 C   0  0  0  0  0  0  0  0  0  0  0  0
    1.7371    0.0000    0.0000 C   0  0  0  0  0  0  0  0  0  0  0  0
    2.6039   -0.5053    0.0000 C   0  0  0  0  0  0  0  0  0  0  0  0
    3.4805   -0.0073    0.0000 C   0  0  1  0  0  0  0  0  0  0  0  0
    4.3437   -0.5122    0.0000 C   0  0  0  0  0  0  0  0  0  0  0  0
    4.3381   -1.5121    0.0000 O   0  0  0  0  0  0  0  0  0  0  0  0
    5.2125   -0.0170    0.0000 O   0  0  0  0  0  0  0  0  0  0  0  0
  2  1  1  6  0  0  0
  2  3  1  0  0  0  0
  3  4  1  0  0  0  0
  4  5  1  1  0  0  0
  5  6  1  0  0  0  0
  6  7  1  0  0  0  0
  7 12  2  0  0  0  0
  7  8  1  0  0  0  0
  8  9  2  0  0  0  0
  9 10  1  0  0  0  0
 10 11  2  0  0  0  0
 11 12  1  0  0  0  0
  4 13  1  0  0  0  0
 13 14  2  0  0  0  0
 13 15  1  0  0  0  0
  2 16  1  0  0  0  0
 16 17  2  0  0  0  0
 16 18  1  0  0  0  0
 18 27  1  0  0  0  0
 18 19  1  0  0  0  0
 19 20  1  0  0  0  0
 20 25  2  0  0  0  0
 20 21  1  0  0  0  0
 21 22  2  0  0  0  0
 22 23  1  0  0  0  0
 23 24  2  0  0  0  0
 24 25  1  0  0  0  0
 25 26  1  0  0  0  0
 26 27  1  0  0  0  0
 27 28  1  6  0  0  0
 28 29  2  0  0  0  0
 28 30  1  0  0  0  0
M  END
>  <Name>
Quinaprilat

>  <CAS #>
82768-85-2

>  <human Clearance (mL/min/kg)>
0.93

>  <Primary mechanism (metabolic, biliary or renal)>
renal

>  <seqId>
764.0

>  <Code (mechanism and clearance degree index)>
R1

>  < Five M1 and R1 test groups>
R1_1

>  <formamide>
0

>  <prodrug phosphates>
0

>  <VolSurf_V>
871.875

>  <VolSurf_S>
550.678

>  <VolSurf_R>
1.58328

>  <VolSurf_G>
1.39369

>  <VolSurf_IW1>
0.0913735

>  <VolSurf_IW2>
0.242304

>  <VolSurf_IW3>
0.45509

>  <VolSurf_IW4>
0.642499

>  <VolSurf_ID1>
0.0654143

>  <VolSurf_ID2>
0.105735

>  <VolSurf_ID3>
0.147376

>  <VolSurf_ID4>
0.182126

>  <VolSurf_HL1>
4.57595

>  <VolSurf_HL2>
5.30573

>  <VolSurf_A>
5.71584

>  <VolSurf_CP>
0.340261

>  <VolSurf_POL>
45.283

>  <VolSurf_MW>
409.455

>  <VolSurf_FLEX>
3.14504

>  <VolSurf_FLEX_RB>
0.314504

>  <VolSurf_NCC>
3.0

>  <VolSurf_LOGP n-Oct>
1.784

>  <VolSurf_LOGP c-Hex>
-1.69

>  <VolSurf_PSA>
135.9

>  <VolSurf_HSA>
414.778

>  <VolSurf_PSAR>
0.246787

>  <VolSurf_PHSAR>
0.327645

>  <VolSurf_LgD5>
-1.01144

>  <VolSurf_LgD6>
-1.85602

>  <VolSurf_LgD7>
-2.28249

>  <VolSurf_LgD7.5>
-2.39789

>  <VolSurf_LgD8>
-2.56994

>  <VolSurf_LgD9>
-3.26376

>  <VolSurf_LgD10>
-4.14531

>  <VolSurf_AUS7.4>
0.0

>  <VolSurf_%FU4>
0.0

>  <VolSurf_%FU5>
0.0

>  <VolSurf_%FU6>
0.0

>  <VolSurf_%FU7>
0.0

>  <VolSurf_%FU8>
0.0

>  <VolSurf_%FU9>
0.0

>  <VolSurf_%FU10>
0.0

>  <ID>
361

>  <MOKAID>
362

>  <Clearance Route>
renal

>  <PC1>
-1.9586700000000001

>  <PC2>
-0.278244

$$$$
Quinine
  -OEChem-08301611272D

 25 28  0     1  0  0  0  0  0999 V2000
   -1.7320   -0.0025    0.0000 C   0  0  0  0  0  0  0  0  0  0  0  0
   -0.8653   -0.5013    0.0000 O   0  0  0  0  0  0  0  0  0  0  0  0
    0.0000   -0.0000    0.0000 C   0  0  0  0  0  0  0  0  0  0  0  0
    0.0000    1.0089    0.0000 C   0  0  0  0  0  0  0  0  0  0  0  0
    0.8707    1.5185    0.0000 C   0  0  0  0  0  0  0  0  0  0  0  0
    1.7414    1.0089    0.0000 C   0  0  0  0  0  0  0  0  0  0  0  0
    2.6125    1.5125    0.0000 N   0  0  0  0  0  0  0  0  0  0  0  0
    3.4848    1.0014    0.0000 C   0  0  0  0  0  0  0  0  0  0  0  0
    3.4805   -0.0073    0.0000 C   0  0  0  0  0  0  0  0  0  0  0  0
    2.6039   -0.5053    0.0000 C   0  0  0  0  0  0  0  0  0  0  0  0
    2.5983   -1.5053    0.0000 C   0  0  1  0  0  0  0  0  0  0  0  0
    1.7295   -2.0004    0.0000 O   0  0  0  0  0  0  0  0  0  0  0  0
    3.4615   -2.0101    0.0000 C   0  0  2  0  0  0  0  0  0  0  0  0
    3.4496   -3.4132    0.0000 C   0  0  0  0  0  0  0  0  0  0  0  0
    4.6546   -4.1180    0.0000 C   0  0  2  0  0  0  0  0  0  0  0  0
    5.4123   -3.4653    0.0000 C   0  0  0  0  0  0  0  0  0  0  0  0
    5.4525   -2.0624    0.0000 C   0  0  0  0  0  0  0  0  0  0  0  0
    4.6786   -1.3117    0.0000 N   0  0  3  0  0  0  0  0  0  0  0  0
    5.8835   -2.0308    0.0000 C   0  0  0  0  0  0  0  0  0  0  0  0
    5.8715   -3.4339    0.0000 C   0  0  2  0  0  0  0  0  0  0  0  0
    6.7325   -3.9425    0.0000 C   0  0  0  0  0  0  0  0  0  0  0  0
    7.6034   -3.4512    0.0000 C   0  0  0  0  0  0  0  0  0  0  0  0
    1.7371   -0.0000    0.0000 C   0  0  0  0  0  0  0  0  0  0  0  0
    0.8707   -0.4993    0.0000 C   0  0  0  0  0  0  0  0  0  0  0  0
    4.6460   -5.1180    0.0000 H   0  0  0  0  0  0  0  0  0  0  0  0
  1  2  1  0  0  0  0
  2  3  1  0  0  0  0
  3 24  2  0  0  0  0
  3  4  1  0  0  0  0
  4  5  2  0  0  0  0
  5  6  1  0  0  0  0
  6 23  2  0  0  0  0
  6  7  1  0  0  0  0
  7  8  2  0  0  0  0
  8  9  1  0  0  0  0
  9 10  2  0  0  0  0
 10 11  1  0  0  0  0
 11 12  1  6  0  0  0
 11 13  1  0  0  0  0
 13 18  1  0  0  0  0
 13 14  1  1  0  0  0
 14 15  1  0  0  0  0
 15 20  1  0  0  0  0
 15 16  1  0  0  0  0
 16 17  1  0  0  0  0
 17 18  1  0  0  0  0
 18 19  1  0  0  0  0
 19 20  1  0  0  0  0
 20 21  1  6  0  0  0
 21 22  2  0  0  0  0
 10 23  1  0  0  0  0
 23 24  1  0  0  0  0
 15 25  1  1  0  0  0
M  END
>  <Name>
Quinine

>  <CAS #>
130-95-0

>  <human Clearance (mL/min/kg)>
1.9

>  <Primary mechanism (metabolic, biliary or renal)>
metabolic

>  <seqId>
766.0

>  <Code (mechanism and clearance degree index)>
M1

>  < Five M1 and R1 test groups>
M1_4

>  <formamide>
0

>  <prodrug phosphates>
0

>  <VolSurf_V>
754.25

>  <VolSurf_S>
513.882

>  <VolSurf_R>
1.46775

>  <VolSurf_G>
1.45229

>  <VolSurf_IW1>
0.0560345

>  <VolSurf_IW2>
0.195109

>  <VolSurf_IW3>
0.394487

>  <VolSurf_IW4>
0.608528

>  <VolSurf_ID1>
0.0337936

>  <VolSurf_ID2>
0.0351809

>  <VolSurf_ID3>
0.0588884

>  <VolSurf_ID4>
0.249465

>  <VolSurf_HL1>
1.95732

>  <VolSurf_HL2>
1.78035

>  <VolSurf_A>
3.01984

>  <VolSurf_CP>
2.06965

>  <VolSurf_POL>
38.9

>  <VolSurf_MW>
325.425

>  <VolSurf_FLEX>
1.33595

>  <VolSurf_FLEX_RB>
0.222659

>  <VolSurf_NCC>
1.0

>  <VolSurf_LOGP n-Oct>
2.89

>  <VolSurf_LOGP c-Hex>
0.24

>  <VolSurf_PSA>
55.7

>  <VolSurf_HSA>
458.182

>  <VolSurf_PSAR>
0.108391

>  <VolSurf_PHSAR>
0.121567

>  <VolSurf_LgD5>
0.141595

>  <VolSurf_LgD6>
0.845481

>  <VolSurf_LgD7>
1.76451

>  <VolSurf_LgD7.5>
2.19596

>  <VolSurf_LgD8>
2.53764

>  <VolSurf_LgD9>
2.8386

>  <VolSurf_LgD10>
2.88293

>  <VolSurf_AUS7.4>
1.23996

>  <VolSurf_%FU4>
0.00312655

>  <VolSurf_%FU5>
0.0689807

>  <VolSurf_%FU6>
0.778988

>  <VolSurf_%FU7>
7.37343

>  <VolSurf_%FU8>
44.3555

>  <VolSurf_%FU9>
88.8244

>  <VolSurf_%FU10>
98.3846

>  <ID>
362

>  <MOKAID>
363

>  <Clearance Route>
metabolic

>  <PC1>
2.3709700000000002

>  <PC2>
-0.663158

$$$$
Quinupristin
  -OEChem-08301611272D

 75 82  0     1  0  0  0  0  0999 V2000
   -4.1289   -1.3835    0.0000 C   0  0  0  0  0  0  0  0  0  0  0  0
   -4.4280   -0.4293    0.0000 C   0  0  0  0  0  0  0  0  0  0  0  0
   -3.7512    0.3069    0.0000 C   0  0  1  0  0  0  0  0  0  0  0  0
   -2.9087   -0.2416    0.0000 N   0  0  0  0  0  0  0  0  0  0  0  0
   -1.9303   -0.4887    0.0000 C   0  0  0  0  0  0  0  0  0  0  0  0
   -2.0126   -1.4853    0.0000 O   0  0  0  0  0  0  0  0  0  0  0  0
   -0.9237   -0.4053    0.0000 C   0  0  1  0  0  0  0  0  0  0  0  0
   -0.4940   -2.1017    0.0000 N   0  0  0  0  0  0  0  0  0  0  0  0
    0.4683   -2.3738    0.0000 C   0  0  0  0  0  0  0  0  0  0  0  0
    1.1850   -1.6764    0.0000 O   0  0  0  0  0  0  0  0  0  0  0  0
    0.7138   -3.3432    0.0000 C   0  0  0  0  0  0  0  0  0  0  0  0
   -0.0087   -4.0420    0.0000 N   0  0  0  0  0  0  0  0  0  0  0  0
    0.2467   -5.0141    0.0000 C   0  0  0  0  0  0  0  0  0  0  0  0
    1.2148   -5.2847    0.0000 C   0  0  0  0  0  0  0  0  0  0  0  0
    1.9275   -4.5832    0.0000 C   0  0  0  0  0  0  0  0  0  0  0  0
    1.6819   -3.6138    0.0000 C   0  0  0  0  0  0  0  0  0  0  0  0
    2.3976   -2.9154    0.0000 O   0  0  0  0  0  0  0  0  0  0  0  0
    0.0000    0.0000    0.0000 C   0  0  1  0  0  0  0  0  0  0  0  0
    0.5470   -0.8371    0.0000 C   0  0  0  0  0  0  0  0  0  0  0  0
    0.7424    0.6834    0.0000 O   0  0  0  0  0  0  0  0  0  0  0  0
    1.2236    1.5727    0.0000 C   0  0  0  0  0  0  0  0  0  0  0  0
    2.1694    1.2480    0.0000 O   0  0  0  0  0  0  0  0  0  0  0  0
    1.3901    2.5698    0.0000 C   0  0  1  0  0  0  0  0  0  0  0  0
    1.2252    3.5621    0.0000 N   0  0  0  0  0  0  0  0  0  0  0  0
    0.7449    4.4434    0.0000 C   0  0  0  0  0  0  0  0  0  0  0  0
    1.5377    5.0529    0.0000 O   0  0  0  0  0  0  0  0  0  0  0  0
    0.0022    5.1479    0.0000 C   0  0  2  0  0  0  0  0  0  0  0  0
    0.8203    5.7691    0.0000 C   0  0  0  0  0  0  0  0  0  0  0  0
    0.7068    6.7655    0.0000 C   0  0  0  0  0  0  0  0  0  0  0  0
    1.5112    7.3596    0.0000 O   0  0  0  0  0  0  0  0  0  0  0  0
   -0.2143    7.1679    0.0000 C   0  0  2  0  0  0  0  0  0  0  0  0
   -0.3248    8.1618    0.0000 C   0  0  0  0  0  0  0  0  0  0  0  0
   -1.2408    8.5630    0.0000 S   0  0  0  0  0  0  0  0  0  0  0  0
   -1.3514    9.5569    0.0000 C   0  0  2  0  0  0  0  0  0  0  0  0
   -0.2224   10.3901    0.0000 C   0  0  0  0  0  0  0  0  0  0  0  0
   -0.3713   11.7853    0.0000 N   0  0  0  0  0  0  0  0  0  0  0  0
   -1.6607   12.3388    0.0000 C   0  0  0  0  0  0  0  0  0  0  0  0
   -2.7896   11.5056    0.0000 C   0  0  0  0  0  0  0  0  0  0  0  0
   -2.6293   10.1188    0.0000 C   0  0  0  0  0  0  0  0  0  0  0  0
   -1.6524    9.9051    0.0000 C   0  0  0  0  0  0  0  0  0  0  0  0
   -0.5066   10.7156    0.0000 C   0  0  0  0  0  0  0  0  0  0  0  0
   -1.0225    6.5744    0.0000 C   0  0  0  0  0  0  0  0  0  0  0  0
   -0.9228    5.5527    0.0000 N   0  0  0  0  0  0  0  0  0  0  0  0
   -1.9447    5.6203    0.0000 C   0  0  0  0  0  0  0  0  0  0  0  0
   -2.0347    6.6162    0.0000 O   0  0  0  0  0  0  0  0  0  0  0  0
   -2.9165    5.3760    0.0000 C   0  0  3  0  0  0  0  0  0  0  0  0
   -3.6186    6.9790    0.0000 C   0  0  0  0  0  0  0  0  0  0  0  0
   -4.6125    7.0895    0.0000 C   0  0  0  0  0  0  0  0  0  0  0  0
   -5.2058    6.2781    0.0000 C   0  0  0  0  0  0  0  0  0  0  0  0
   -6.1997    6.3886    0.0000 C   0  0  0  0  0  0  0  0  0  0  0  0
   -6.6063    7.3023    0.0000 C   0  0  0  0  0  0  0  0  0  0  0  0
   -6.0130    8.1137    0.0000 C   0  0  0  0  0  0  0  0  0  0  0  0
   -5.0130    8.0114    0.0000 C   0  0  0  0  0  0  0  0  0  0  0  0
   -7.6007    7.4084    0.0000 N   0  0  0  0  0  0  0  0  0  0  0  0
   -8.1898    6.6004    0.0000 C   0  0  0  0  0  0  0  0  0  0  0  0
   -8.0059    8.3227    0.0000 C   0  0  0  0  0  0  0  0  0  0  0  0
   -3.7533    4.8285    0.0000 N   0  0  0  0  0  0  0  0  0  0  0  0
   -4.4314    5.5635    0.0000 C   0  0  0  0  0  0  0  0  0  0  0  0
   -4.3685    4.0356    0.0000 C   0  0  0  0  0  0  0  0  0  0  0  0
   -5.2466    4.5141    0.0000 O   0  0  0  0  0  0  0  0  0  0  0  0
   -4.7066    3.0735    0.0000 C   0  0  2  0  0  0  0  0  0  0  0  0
   -5.6785    3.3807    0.0000 C   0  0  0  0  0  0  0  0  0  0  0  0
   -6.2671    2.5679    0.0000 C   0  0  0  0  0  0  0  0  0  0  0  0
   -5.6788    1.7545    0.0000 C   0  0  0  0  0  0  0  0  0  0  0  0
   -4.7066    2.0613    0.0000 N   0  0  0  0  0  0  0  0  0  0  0  0
   -4.3678    1.0996    0.0000 C   0  0  0  0  0  0  0  0  0  0  0  0
   -5.2454    0.6203    0.0000 O   0  0  0  0  0  0  0  0  0  0  0  0
    3.1401    2.5691    0.0000 C   0  0  0  0  0  0  0  0  0  0  0  0
    3.6405    3.4409    0.0000 C   0  0  0  0  0  0  0  0  0  0  0  0
    4.6405    3.4406    0.0000 C   0  0  0  0  0  0  0  0  0  0  0  0
    5.1452    2.5773    0.0000 C   0  0  0  0  0  0  0  0  0  0  0  0
    4.6449    1.7055    0.0000 C   0  0  0  0  0  0  0  0  0  0  0  0
    3.6398    1.6970    0.0000 C   0  0  0  0  0  0  0  0  0  0  0  0
    1.0007    5.0931    0.0000 H   0  0  0  0  0  0  0  0  0  0  0  0
   -5.1536    3.9681    0.0000 H   0  0  0  0  0  0  0  0  0  0  0  0
  1  2  1  0  0  0  0
  3  2  1  6  0  0  0
  3 66  1  0  0  0  0
  3  4  1  0  0  0  0
  4  5  1  0  0  0  0
  5  6  2  0  0  0  0
  5  7  1  0  0  0  0
  7  8  1  6  0  0  0
  8  9  1  0  0  0  0
  9 10  2  0  0  0  0
  9 11  1  0  0  0  0
 11 16  2  0  0  0  0
 11 12  1  0  0  0  0
 12 13  2  0  0  0  0
 13 14  1  0  0  0  0
 14 15  2  0  0  0  0
 15 16  1  0  0  0  0
 16 17  1  0  0  0  0
  7 18  1  0  0  0  0
 18 19  1  6  0  0  0
 18 20  1  0  0  0  0
 20 21  1  0  0  0  0
 21 22  2  0  0  0  0
 21 23  1  0  0  0  0
 23 24  1  0  0  0  0
 24 25  1  0  0  0  0
 25 26  2  0  0  0  0
 25 27  1  0  0  0  0
 27 43  1  0  0  0  0
 27 28  1  0  0  0  0
 28 29  1  0  0  0  0
 29 30  2  0  0  0  0
 29 31  1  0  0  0  0
 31 32  1  1  0  0  0
 32 33  1  0  0  0  0
 34 33  1  1  0  0  0
 34 39  1  0  0  0  0
 34 35  1  0  0  0  0
 35 36  1  0  0  0  0
 36 41  1  0  0  0  0
 36 37  1  0  0  0  0
 37 38  1  0  0  0  0
 38 39  1  0  0  0  0
 39 40  1  0  0  0  0
 40 41  1  0  0  0  0
 31 42  1  0  0  0  0
 42 43  1  0  0  0  0
 43 44  1  0  0  0  0
 44 45  2  0  0  0  0
 44 46  1  0  0  0  0
 46 47  1  0  0  0  0
 47 48  1  0  0  0  0
 48 53  2  0  0  0  0
 48 49  1  0  0  0  0
 49 50  2  0  0  0  0
 50 51  1  0  0  0  0
 51 52  2  0  0  0  0
 52 53  1  0  0  0  0
 51 54  1  0  0  0  0
 54 55  1  0  0  0  0
 54 56  1  0  0  0  0
 46 57  1  0  0  0  0
 57 58  1  0  0  0  0
 57 59  1  0  0  0  0
 59 60  2  0  0  0  0
 59 61  1  0  0  0  0
 61 65  1  0  0  0  0
 61 62  1  0  0  0  0
 62 63  1  0  0  0  0
 63 64  1  0  0  0  0
 64 65  1  0  0  0  0
 65 66  1  0  0  0  0
 66 67  2  0  0  0  0
 23 68  1  1  0  0  0
 68 73  2  0  0  0  0
 68 69  1  0  0  0  0
 69 70  2  0  0  0  0
 70 71  1  0  0  0  0
 71 72  2  0  0  0  0
 72 73  1  0  0  0  0
 27 74  1  6  0  0  0
 61 75  1  6  0  0  0
M  END
>  <Name>
Quinupristin

>  <CAS #>
120138-50-3

>  <human Clearance (mL/min/kg)>
16.0

>  <Primary mechanism (metabolic, biliary or renal)>
metabolic

>  <seqId>
767.0

>  <Code (mechanism and clearance degree index)>
M1

>  < Five M1 and R1 test groups>
M1_5

>  <formamide>
0

>  <prodrug phosphates>
0

>  <VolSurf_V>
2060.75

>  <VolSurf_S>
1247.98

>  <VolSurf_R>
1.65126

>  <VolSurf_G>
2.01169

>  <VolSurf_IW1>
0.0237954

>  <VolSurf_IW2>
0.0798688

>  <VolSurf_IW3>
0.191109

>  <VolSurf_IW4>
0.312979

>  <VolSurf_ID1>
0.0110366

>  <VolSurf_ID2>
0.0412634

>  <VolSurf_ID3>
0.0603056

>  <VolSurf_ID4>
0.076649

>  <VolSurf_HL1>
2.84261

>  <VolSurf_HL2>
3.4016

>  <VolSurf_A>
4.35065

>  <VolSurf_CP>
0.678274

>  <VolSurf_POL>
107.149

>  <VolSurf_MW>
1022.22

>  <VolSurf_FLEX>
2.55138

>  <VolSurf_FLEX_RB>
0.159461

>  <VolSurf_NCC>
2.0

>  <VolSurf_LOGP n-Oct>
2.959

>  <VolSurf_LOGP c-Hex>
-2.384

>  <VolSurf_PSA>
252.79

>  <VolSurf_HSA>
995.194

>  <VolSurf_PSAR>
0.202559

>  <VolSurf_PHSAR>
0.254011

>  <VolSurf_LgD5>
-0.733734

>  <VolSurf_LgD6>
0.185399

>  <VolSurf_LgD7>
0.572696

>  <VolSurf_LgD7.5>
0.593785

>  <VolSurf_LgD8>
0.531551

>  <VolSurf_LgD9>
0.0903441

>  <VolSurf_LgD10>
-0.391976

>  <VolSurf_AUS7.4>
0.0

>  <VolSurf_%FU4>
0.0

>  <VolSurf_%FU5>
0.0

>  <VolSurf_%FU6>
0.0

>  <VolSurf_%FU7>
0.0

>  <VolSurf_%FU8>
0.0

>  <VolSurf_%FU9>
0.0

>  <VolSurf_%FU10>
0.0

>  <ID>
363

>  <MOKAID>
364

>  <Clearance Route>
possible billary

>  <PC1>
-1.64143

>  <PC2>
-8.30487

$$$$
Rabeprazole
  -OEChem-08301611272D

 25 27  0     1  0  0  0  0  0999 V2000
   11.7779    3.8463    0.0000 C   0  0  0  0  0  0  0  0  0  0  0  0
   10.7779    3.8433    0.0000 O   0  0  0  0  0  0  0  0  0  0  0  0
   10.2805    2.9758    0.0000 C   0  0  0  0  0  0  0  0  0  0  0  0
    9.2805    2.9728    0.0000 C   0  0  0  0  0  0  0  0  0  0  0  0
    8.7831    2.1053    0.0000 C   0  0  0  0  0  0  0  0  0  0  0  0
    7.7832    2.1022    0.0000 O   0  0  0  0  0  0  0  0  0  0  0  0
    7.2858    1.2347    0.0000 C   0  0  0  0  0  0  0  0  0  0  0  0
    7.7909    0.3716    0.0000 C   0  0  0  0  0  0  0  0  0  0  0  0
    7.2909   -0.5004    0.0000 C   0  0  0  0  0  0  0  0  0  0  0  0
    6.2858   -0.5094    0.0000 N   0  0  0  0  0  0  0  0  0  0  0  0
    5.7857    0.3626    0.0000 C   0  0  0  0  0  0  0  0  0  0  0  0
    4.7857    0.3625    0.0000 C   0  0  0  0  0  0  0  0  0  0  0  0
    4.2858   -0.5035    0.0000 S   0  0  3  0  0  0  0  0  0  0  0  0
    4.7859   -1.3695    0.0000 O   0  0  0  0  0  0  0  0  0  0  0  0
    3.2858   -0.5036    0.0000 C   0  0  0  0  0  0  0  0  0  0  0  0
    2.6938    0.3110    0.0000 N   0  0  0  0  0  0  0  0  0  0  0  0
    1.7360   -0.0000    0.0000 C   0  0  0  0  0  0  0  0  0  0  0  0
    0.8680    0.5079    0.0000 C   0  0  0  0  0  0  0  0  0  0  0  0
    0.0000    0.0000    0.0000 C   0  0  0  0  0  0  0  0  0  0  0  0
   -0.0000   -1.0058    0.0000 C   0  0  0  0  0  0  0  0  0  0  0  0
    0.8680   -1.5037    0.0000 C   0  0  0  0  0  0  0  0  0  0  0  0
    1.7360   -1.0071    0.0000 C   0  0  0  0  0  0  0  0  0  0  0  0
    2.6938   -1.3184    0.0000 N   0  0  0  0  0  0  0  0  0  0  0  0
    6.2857    1.2346    0.0000 C   0  0  0  0  0  0  0  0  0  0  0  0
    5.7844    2.0999    0.0000 C   0  0  0  0  0  0  0  0  0  0  0  0
  1  2  1  0  0  0  0
  2  3  1  0  0  0  0
  3  4  1  0  0  0  0
  4  5  1  0  0  0  0
  5  6  1  0  0  0  0
  6  7  1  0  0  0  0
  7 24  2  0  0  0  0
  7  8  1  0  0  0  0
  8  9  2  0  0  0  0
  9 10  1  0  0  0  0
 10 11  2  0  0  0  0
 11 12  1  0  0  0  0
 12 13  1  0  0  0  0
 13 14  2  0  0  0  0
 13 15  1  0  0  0  0
 15 23  1  0  0  0  0
 15 16  2  0  0  0  0
 16 17  1  0  0  0  0
 17 22  2  0  0  0  0
 17 18  1  0  0  0  0
 18 19  2  0  0  0  0
 19 20  1  0  0  0  0
 20 21  2  0  0  0  0
 21 22  1  0  0  0  0
 22 23  1  0  0  0  0
 11 24  1  0  0  0  0
 24 25  1  0  0  0  0
M  END
>  <Name>
Rabeprazole

>  <CAS #>
117976-89-3

>  <human Clearance (mL/min/kg)>
4.0

>  <Primary mechanism (metabolic, biliary or renal)>
metabolic

>  <seqId>
768.0

>  <Code (mechanism and clearance degree index)>
M1

>  < Five M1 and R1 test groups>
M1_5

>  <formamide>
0

>  <prodrug phosphates>
0

>  <VolSurf_V>
805.125

>  <VolSurf_S>
565.554

>  <VolSurf_R>
1.4236

>  <VolSurf_G>
1.5708

>  <VolSurf_IW1>
0.0329116

>  <VolSurf_IW2>
0.0785797

>  <VolSurf_IW3>
0.210318

>  <VolSurf_IW4>
0.697903

>  <VolSurf_ID1>
0.0734231

>  <VolSurf_ID2>
0.153109

>  <VolSurf_ID3>
0.237845

>  <VolSurf_ID4>
0.298894

>  <VolSurf_HL1>
2.59003

>  <VolSurf_HL2>
1.97788

>  <VolSurf_A>
3.35305

>  <VolSurf_CP>
0.431477

>  <VolSurf_POL>
38.778

>  <VolSurf_MW>
359.443

>  <VolSurf_FLEX>
2.71738

>  <VolSurf_FLEX_RB>
0.271738

>  <VolSurf_NCC>
0.0

>  <VolSurf_LOGP n-Oct>
2.1

>  <VolSurf_LOGP c-Hex>
0.552

>  <VolSurf_PSA>
98.78

>  <VolSurf_HSA>
466.774

>  <VolSurf_PSAR>
0.17466

>  <VolSurf_PHSAR>
0.211623

>  <VolSurf_LgD5>
2.06172

>  <VolSurf_LgD6>
2.09525

>  <VolSurf_LgD7>
2.09157

>  <VolSurf_LgD7.5>
2.07495

>  <VolSurf_LgD8>
2.02558

>  <VolSurf_LgD9>
1.64255

>  <VolSurf_LgD10>
0.808344

>  <VolSurf_AUS7.4>
1.9831

>  <VolSurf_%FU4>
50.4253

>  <VolSurf_%FU5>
91.5601

>  <VolSurf_%FU6>
98.9115

>  <VolSurf_%FU7>
98.0775

>  <VolSurf_%FU8>
84.2476

>  <VolSurf_%FU9>
34.8569

>  <VolSurf_%FU10>
5.07908

>  <ID>
364

>  <MOKAID>
365

>  <Clearance Route>
metabolic

>  <PC1>
2.09833

>  <PC2>
-0.349649

$$$$
Raltitrexed
  -OEChem-08301611272D

 32 34  0     1  0  0  0  0  0999 V2000
   -2.8123   -3.2098    0.0000 C   0  0  0  0  0  0  0  0  0  0  0  0
   -3.3125   -2.3439    0.0000 C   0  0  0  0  0  0  0  0  0  0  0  0
   -2.6479   -1.5961    0.0000 S   0  0  0  0  0  0  0  0  0  0  0  0
   -1.7291   -2.0025    0.0000 C   0  0  0  0  0  0  0  0  0  0  0  0
   -0.8638   -1.5013    0.0000 N   0  0  3  0  0  0  0  0  0  0  0  0
   -0.8653   -0.5013    0.0000 C   0  0  0  0  0  0  0  0  0  0  0  0
    0.0000    0.0000    0.0000 C   0  0  0  0  0  0  0  0  0  0  0  0
    0.8679   -0.4977    0.0000 C   0  0  0  0  0  0  0  0  0  0  0  0
    1.7371    0.0000    0.0000 C   0  0  0  0  0  0  0  0  0  0  0  0
    1.7358    1.0056    0.0000 C   0  0  0  0  0  0  0  0  0  0  0  0
    0.8679    1.5135    0.0000 C   0  0  0  0  0  0  0  0  0  0  0  0
    0.0000    1.0056    0.0000 C   0  0  0  0  0  0  0  0  0  0  0  0
    2.6012    1.5123    0.0000 N   0  0  0  0  0  0  0  0  0  0  0  0
    3.4735    1.0079    0.0000 C   0  0  0  0  0  0  0  0  0  0  0  0
    3.4748    0.0023    0.0000 N   0  0  0  0  0  0  0  0  0  0  0  0
    2.6038   -0.4989    0.0000 C   0  0  0  0  0  0  0  0  0  0  0  0
    2.6037   -1.4989    0.0000 O   0  0  0  0  0  0  0  0  0  0  0  0
    4.3394    1.5082    0.0000 C   0  0  0  0  0  0  0  0  0  0  0  0
    0.0029   -2.0000    0.0000 C   0  0  0  0  0  0  0  0  0  0  0  0
   -1.8333   -2.9988    0.0000 C   0  0  0  0  0  0  0  0  0  0  0  0
   -4.3074   -2.2427    0.0000 C   0  0  0  0  0  0  0  0  0  0  0  0
   -4.7172   -1.3305    0.0000 O   0  0  0  0  0  0  0  0  0  0  0  0
   -4.8925   -3.0536    0.0000 N   0  0  0  0  0  0  0  0  0  0  0  0
   -5.8874   -2.9524    0.0000 C   0  0  1  0  0  0  0  0  0  0  0  0
   -6.4725   -3.7634    0.0000 C   0  0  0  0  0  0  0  0  0  0  0  0
   -6.0627   -4.6756    0.0000 C   0  0  0  0  0  0  0  0  0  0  0  0
   -6.6478   -5.4865    0.0000 C   0  0  0  0  0  0  0  0  0  0  0  0
   -6.2380   -6.3987    0.0000 O   0  0  0  0  0  0  0  0  0  0  0  0
   -7.6426   -5.3853    0.0000 O   0  0  0  0  0  0  0  0  0  0  0  0
   -6.2971   -2.0402    0.0000 C   0  0  0  0  0  0  0  0  0  0  0  0
   -5.7120   -1.2293    0.0000 O   0  0  0  0  0  0  0  0  0  0  0  0
   -7.2920   -1.9390    0.0000 O   0  0  0  0  0  0  0  0  0  0  0  0
  1 20  1  0  0  0  0
  1  2  2  0  0  0  0
  2  3  1  0  0  0  0
  3  4  1  0  0  0  0
  4  5  1  0  0  0  0
  5  6  1  0  0  0  0
  6  7  1  0  0  0  0
  7 12  2  0  0  0  0
  7  8  1  0  0  0  0
  8  9  2  0  0  0  0
  9 16  1  0  0  0  0
  9 10  1  0  0  0  0
 10 11  2  0  0  0  0
 11 12  1  0  0  0  0
 10 13  1  0  0  0  0
 13 14  1  0  0  0  0
 14 15  2  0  0  0  0
 15 16  1  0  0  0  0
 16 17  2  0  0  0  0
 14 18  1  0  0  0  0
  5 19  1  0  0  0  0
  4 20  2  0  0  0  0
  2 21  1  0  0  0  0
 21 22  2  0  0  0  0
 21 23  1  0  0  0  0
 23 24  1  0  0  0  0
 24 25  1  1  0  0  0
 25 26  1  0  0  0  0
 26 27  1  0  0  0  0
 27 28  1  0  0  0  0
 27 29  2  0  0  0  0
 24 30  1  0  0  0  0
 30 31  2  0  0  0  0
 30 32  1  0  0  0  0
M  END
>  <Name>
Raltitrexed

>  <CAS #>
112887-68-0

>  <human Clearance (mL/min/kg)>
0.9

>  <Primary mechanism (metabolic, biliary or renal)>
reanl

>  <seqId>
771.0

>  <Code (mechanism and clearance degree index)>
R1

>  < Five M1 and R1 test groups>
R1_5

>  <formamide>
0

>  <prodrug phosphates>
0

>  <VolSurf_V>
931.625

>  <VolSurf_S>
652.711

>  <VolSurf_R>
1.42732

>  <VolSurf_G>
1.68312

>  <VolSurf_IW1>
0.104365

>  <VolSurf_IW2>
0.225919

>  <VolSurf_IW3>
0.449176

>  <VolSurf_IW4>
0.622638

>  <VolSurf_ID1>
0.085478

>  <VolSurf_ID2>
0.177903

>  <VolSurf_ID3>
0.242336

>  <VolSurf_ID4>
0.306428

>  <VolSurf_HL1>
5.78961

>  <VolSurf_HL2>
5.06641

>  <VolSurf_A>
7.50634

>  <VolSurf_CP>
0.199707

>  <VolSurf_POL>
43.914

>  <VolSurf_MW>
456.472

>  <VolSurf_FLEX>
3.10705

>  <VolSurf_FLEX_RB>
0.282459

>  <VolSurf_NCC>
2.0

>  <VolSurf_LOGP n-Oct>
2.282

>  <VolSurf_LOGP c-Hex>
-6.985

>  <VolSurf_PSA>
177.85

>  <VolSurf_HSA>
474.861

>  <VolSurf_PSAR>
0.272479

>  <VolSurf_PHSAR>
0.374531

>  <VolSurf_LgD5>
0.697801

>  <VolSurf_LgD6>
-0.676561

>  <VolSurf_LgD7>
-2.22079

>  <VolSurf_LgD7.5>
-2.85286

>  <VolSurf_LgD8>
-3.3947

>  <VolSurf_LgD9>
-4.12731

>  <VolSurf_LgD10>
-4.1575

>  <VolSurf_AUS7.4>
0.0

>  <VolSurf_%FU4>
23.9586

>  <VolSurf_%FU5>
2.56945

>  <VolSurf_%FU6>
0.0966447

>  <VolSurf_%FU7>
0.00131103

>  <VolSurf_%FU8>
1.27589E-5

>  <VolSurf_%FU9>
7.89195E-8

>  <VolSurf_%FU10>
1.62939E-10

>  <ID>
365

>  <MOKAID>
366

>  <Clearance Route>
renal

>  <PC1>
-2.8054900000000003

>  <PC2>
-0.362234

$$$$
Ramelteon
  -OEChem-08301611272D

 19 21  0     1  0  0  0  0  0999 V2000
   -4.3985   -4.2714    0.0000 C   0  0  0  0  0  0  0  0  0  0  0  0
   -3.4474   -3.9624    0.0000 C   0  0  0  0  0  0  0  0  0  0  0  0
   -3.2394   -2.9843    0.0000 C   0  0  0  0  0  0  0  0  0  0  0  0
   -2.2883   -2.6753    0.0000 N   0  0  0  0  0  0  0  0  0  0  0  0
   -2.0804   -1.6972    0.0000 C   0  0  0  0  0  0  0  0  0  0  0  0
   -1.1293   -1.3882    0.0000 C   0  0  0  0  0  0  0  0  0  0  0  0
   -0.9213   -0.4101    0.0000 C   0  0  2  0  0  0  0  0  0  0  0  0
    0.0000    0.0000    0.0000 C   0  0  0  0  0  0  0  0  0  0  0  0
   -0.1055    1.0028    0.0000 C   0  0  0  0  0  0  0  0  0  0  0  0
   -1.0917    1.2125    0.0000 C   0  0  0  0  0  0  0  0  0  0  0  0
   -1.5931    2.0865    0.0000 C   0  0  0  0  0  0  0  0  0  0  0  0
   -2.6014    2.0865    0.0000 C   0  0  0  0  0  0  0  0  0  0  0  0
   -3.1084    1.2125    0.0000 C   0  0  0  0  0  0  0  0  0  0  0  0
   -4.0855    0.9998    0.0000 O   0  0  0  0  0  0  0  0  0  0  0  0
   -4.1854    0.0047    0.0000 C   0  0  0  0  0  0  0  0  0  0  0  0
   -3.2698   -0.3975    0.0000 C   0  0  0  0  0  0  0  0  0  0  0  0
   -2.6042    0.3489    0.0000 C   0  0  0  0  0  0  0  0  0  0  0  0
   -1.5959    0.3392    0.0000 C   0  0  0  0  0  0  0  0  0  0  0  0
   -3.9825   -2.3151    0.0000 O   0  0  0  0  0  0  0  0  0  0  0  0
  1  2  1  0  0  0  0
  2  3  1  0  0  0  0
  3  4  1  0  0  0  0
  4  5  1  0  0  0  0
  5  6  1  0  0  0  0
  7  6  1  1  0  0  0
  7 18  1  0  0  0  0
  7  8  1  0  0  0  0
  8  9  1  0  0  0  0
  9 10  1  0  0  0  0
 10 18  1  0  0  0  0
 10 11  2  0  0  0  0
 11 12  1  0  0  0  0
 12 13  2  0  0  0  0
 13 17  1  0  0  0  0
 13 14  1  0  0  0  0
 14 15  1  0  0  0  0
 15 16  1  0  0  0  0
 16 17  1  0  0  0  0
 17 18  2  0  0  0  0
  3 19  2  0  0  0  0
M  END
>  <Name>
Ramelteon

>  <CAS #>
196597-26-9

>  <human Clearance (mL/min/kg)>
13.1

>  <Primary mechanism (metabolic, biliary or renal)>
metabolic

>  <seqId>
772.0

>  <Code (mechanism and clearance degree index)>
M1

>  < Five M1 and R1 test groups>
M1_3

>  <formamide>
0

>  <prodrug phosphates>
0

>  <VolSurf_V>
636.375

>  <VolSurf_S>
427.321

>  <VolSurf_R>
1.48922

>  <VolSurf_G>
1.30524

>  <VolSurf_IW1>
0.0271313

>  <VolSurf_IW2>
0.137619

>  <VolSurf_IW3>
0.570006

>  <VolSurf_IW4>
1.53618

>  <VolSurf_ID1>
0.0221696

>  <VolSurf_ID2>
0.0820763

>  <VolSurf_ID3>
0.131578

>  <VolSurf_ID4>
0.193274

>  <VolSurf_HL1>
1.16719

>  <VolSurf_HL2>
0.80829

>  <VolSurf_A>
3.81777

>  <VolSurf_CP>
1.62739

>  <VolSurf_POL>
29.145

>  <VolSurf_MW>
259.343

>  <VolSurf_FLEX>
1.66234

>  <VolSurf_FLEX_RB>
0.332468

>  <VolSurf_NCC>
0.0

>  <VolSurf_LOGP n-Oct>
2.686

>  <VolSurf_LOGP c-Hex>
-0.726

>  <VolSurf_PSA>
40.53

>  <VolSurf_HSA>
386.791

>  <VolSurf_PSAR>
0.0948467

>  <VolSurf_PHSAR>
0.104785

>  <VolSurf_LgD5>
2.686

>  <VolSurf_LgD6>
2.686

>  <VolSurf_LgD7>
2.686

>  <VolSurf_LgD7.5>
2.686

>  <VolSurf_LgD8>
2.686

>  <VolSurf_LgD9>
2.68596

>  <VolSurf_LgD10>
2.68564

>  <VolSurf_AUS7.4>
2.0

>  <VolSurf_%FU4>
100.0

>  <VolSurf_%FU5>
100.0

>  <VolSurf_%FU6>
100.0

>  <VolSurf_%FU7>
99.9999

>  <VolSurf_%FU8>
99.9992

>  <VolSurf_%FU9>
99.9916

>  <VolSurf_%FU10>
99.9162

>  <ID>
366

>  <MOKAID>
367

>  <Clearance Route>
metabolic

>  <PC1>
4.64455

>  <PC2>
1.33141

$$$$
Ranitidine
  -OEChem-08301611272D

 21 21  0     0  0  0  0  0  0999 V2000
    8.0880   -0.4982    0.0000 C   0  0  0  0  0  0  0  0  0  0  0  0
    7.3459    0.1720    0.0000 N   0  0  0  0  0  0  0  0  0  0  0  0
    6.3944   -0.1357    0.0000 C   0  0  0  0  0  0  0  0  0  0  0  0
    6.1851   -1.1135    0.0000 C   0  0  0  0  0  0  0  0  0  0  0  0
    6.9272   -1.7837    0.0000 N   0  0  0  0  0  0  0  0  0  0  0  0
    7.8787   -1.4761    0.0000 O   0  0  0  0  0  0  0  0  0  0  0  0
    6.7179   -2.7616    0.0000 O   0  0  0  0  0  0  0  0  0  0  0  0
    5.6522    0.5345    0.0000 N   0  0  0  0  0  0  0  0  0  0  0  0
    4.7007    0.2268    0.0000 C   0  0  0  0  0  0  0  0  0  0  0  0
    3.9585    0.8970    0.0000 C   0  0  0  0  0  0  0  0  0  0  0  0
    3.0070    0.5894    0.0000 S   0  0  0  0  0  0  0  0  0  0  0  0
    2.2648    1.2596    0.0000 C   0  0  0  0  0  0  0  0  0  0  0  0
    1.3133    0.9519    0.0000 C   0  0  0  0  0  0  0  0  0  0  0  0
    0.5008    1.5428    0.0000 O   0  0  0  0  0  0  0  0  0  0  0  0
   -0.3065    0.9519    0.0000 C   0  0  0  0  0  0  0  0  0  0  0  0
   -1.2577    1.2605    0.0000 C   0  0  0  0  0  0  0  0  0  0  0  0
   -2.0005    0.5910    0.0000 N   0  0  0  0  0  0  0  0  0  0  0  0
   -1.7922   -0.3870    0.0000 C   0  0  0  0  0  0  0  0  0  0  0  0
   -2.9517    0.8996    0.0000 C   0  0  0  0  0  0  0  0  0  0  0  0
    0.0000    0.0000    0.0000 C   0  0  0  0  0  0  0  0  0  0  0  0
    1.0015    0.0000    0.0000 C   0  0  0  0  0  0  0  0  0  0  0  0
  1  2  1  0  0  0  0
  2  3  1  0  0  0  0
  3  4  2  0  0  0  0
  4  5  1  0  0  0  0
  5  6  2  0  0  0  0
  5  7  2  0  0  0  0
  3  8  1  0  0  0  0
  8  9  1  0  0  0  0
  9 10  1  0  0  0  0
 10 11  1  0  0  0  0
 11 12  1  0  0  0  0
 12 13  1  0  0  0  0
 13 21  2  0  0  0  0
 13 14  1  0  0  0  0
 14 15  1  0  0  0  0
 15 16  1  0  0  0  0
 16 17  1  0  0  0  0
 17 18  1  0  0  0  0
 17 19  1  0  0  0  0
 15 20  2  0  0  0  0
 20 21  1  0  0  0  0
M  END
>  <Name>
Ranitidine

>  <CAS #>
66357-35-5

>  <human Clearance (mL/min/kg)>
9.6

>  <Primary mechanism (metabolic, biliary or renal)>
renal

>  <seqId>
773.0

>  <Code (mechanism and clearance degree index)>
R1

>  < Five M1 and R1 test groups>
R1_1

>  <formamide>
0

>  <prodrug phosphates>
0

>  <VolSurf_V>
757.75

>  <VolSurf_S>
530.263

>  <VolSurf_R>
1.42901

>  <VolSurf_G>
1.51525

>  <VolSurf_IW1>
0.0719627

>  <VolSurf_IW2>
0.240221

>  <VolSurf_IW3>
0.436904

>  <VolSurf_IW4>
0.843892

>  <VolSurf_ID1>
0.0245182

>  <VolSurf_ID2>
0.0648302

>  <VolSurf_ID3>
0.179198

>  <VolSurf_ID4>
0.286102

>  <VolSurf_HL1>
1.02899

>  <VolSurf_HL2>
0.536765

>  <VolSurf_A>
2.47502

>  <VolSurf_CP>
1.53642

>  <VolSurf_POL>
34.206

>  <VolSurf_MW>
315.412

>  <VolSurf_FLEX>
3.33531

>  <VolSurf_FLEX_RB>
0.256562

>  <VolSurf_NCC>
1.0

>  <VolSurf_LOGP n-Oct>
0.331

>  <VolSurf_LOGP c-Hex>
1.843

>  <VolSurf_PSA>
97.53

>  <VolSurf_HSA>
432.733

>  <VolSurf_PSAR>
0.183928

>  <VolSurf_PHSAR>
0.225382

>  <VolSurf_LgD5>
-3.71222

>  <VolSurf_LgD6>
-2.25992

>  <VolSurf_LgD7>
-1.09017

>  <VolSurf_LgD7.5>
-0.607252

>  <VolSurf_LgD8>
-0.199429

>  <VolSurf_LgD9>
0.23838

>  <VolSurf_LgD10>
0.320803

>  <VolSurf_AUS7.4>
1.00022

>  <VolSurf_%FU4>
5.45495E-5

>  <VolSurf_%FU5>
0.00488495

>  <VolSurf_%FU6>
0.238344

>  <VolSurf_%FU7>
3.76339

>  <VolSurf_%FU8>
29.4608

>  <VolSurf_%FU9>
80.7882

>  <VolSurf_%FU10>
97.6787

>  <ID>
367

>  <MOKAID>
368

>  <Clearance Route>
uncertain

>  <PC1>
0.204227

>  <PC2>
0.142792

$$$$
Ranolazine
  -OEChem-08301611272D

 31 33  0     1  0  0  0  0  0999 V2000
   -0.8647    5.5126    0.0000 C   0  0  0  0  0  0  0  0  0  0  0  0
   -1.7367    6.0126    0.0000 C   0  0  0  0  0  0  0  0  0  0  0  0
   -1.7367    7.0127    0.0000 C   0  0  0  0  0  0  0  0  0  0  0  0
   -0.8736    7.5177    0.0000 C   0  0  0  0  0  0  0  0  0  0  0  0
   -0.0016    7.0177    0.0000 C   0  0  0  0  0  0  0  0  0  0  0  0
    0.0073    6.0126    0.0000 C   0  0  0  0  0  0  0  0  0  0  0  0
   -2.6019    5.5113    0.0000 O   0  0  0  0  0  0  0  0  0  0  0  0
   -2.6004    4.5113    0.0000 C   0  0  0  0  0  0  0  0  0  0  0  0
   -0.8647    4.5126    0.0000 O   0  0  0  0  0  0  0  0  0  0  0  0
    0.0014    4.0126    0.0000 C   0  0  0  0  0  0  0  0  0  0  0  0
    0.0014    3.0126    0.0000 C   0  0  1  0  0  0  0  0  0  0  0  0
    0.8674    2.5126    0.0000 C   0  0  0  0  0  0  0  0  0  0  0  0
    0.8674    1.5126    0.0000 N   0  0  0  0  0  0  0  0  0  0  0  0
    0.0000    1.0051    0.0000 C   0  0  0  0  0  0  0  0  0  0  0  0
    0.0000    0.0000    0.0000 C   0  0  0  0  0  0  0  0  0  0  0  0
    0.8674   -0.4976    0.0000 N   0  0  0  0  0  0  0  0  0  0  0  0
    0.8674   -1.4976    0.0000 C   0  0  0  0  0  0  0  0  0  0  0  0
    1.7334   -1.9976    0.0000 C   0  0  0  0  0  0  0  0  0  0  0  0
    1.7334   -2.9976    0.0000 N   0  0  0  0  0  0  0  0  0  0  0  0
    2.5995   -3.4976    0.0000 C   0  0  0  0  0  0  0  0  0  0  0  0
    2.6054   -4.5027    0.0000 C   0  0  0  0  0  0  0  0  0  0  0  0
    3.4759   -5.0053    0.0000 C   0  0  0  0  0  0  0  0  0  0  0  0
    4.3405   -4.5028    0.0000 C   0  0  0  0  0  0  0  0  0  0  0  0
    4.3434   -3.5028    0.0000 C   0  0  0  0  0  0  0  0  0  0  0  0
    3.4729   -3.0002    0.0000 C   0  0  0  0  0  0  0  0  0  0  0  0
    3.4758   -2.0002    0.0000 C   0  0  0  0  0  0  0  0  0  0  0  0
    1.7408   -5.0053    0.0000 C   0  0  0  0  0  0  0  0  0  0  0  0
    2.5995   -1.4976    0.0000 O   0  0  0  0  0  0  0  0  0  0  0  0
    1.7348    0.0000    0.0000 C   0  0  0  0  0  0  0  0  0  0  0  0
    1.7348    1.0051    0.0000 C   0  0  0  0  0  0  0  0  0  0  0  0
   -0.8647    2.5126    0.0000 O   0  0  0  0  0  0  0  0  0  0  0  0
  1  6  2  0  0  0  0
  1  2  1  0  0  0  0
  2  3  2  0  0  0  0
  3  4  1  0  0  0  0
  4  5  2  0  0  0  0
  5  6  1  0  0  0  0
  2  7  1  0  0  0  0
  7  8  1  0  0  0  0
  1  9  1  0  0  0  0
  9 10  1  0  0  0  0
 10 11  1  0  0  0  0
 11 12  1  0  0  0  0
 12 13  1  0  0  0  0
 13 30  1  0  0  0  0
 13 14  1  0  0  0  0
 14 15  1  0  0  0  0
 15 16  1  0  0  0  0
 16 17  1  0  0  0  0
 17 18  1  0  0  0  0
 18 19  1  0  0  0  0
 19 20  1  0  0  0  0
 20 25  2  0  0  0  0
 20 21  1  0  0  0  0
 21 22  2  0  0  0  0
 22 23  1  0  0  0  0
 23 24  2  0  0  0  0
 24 25  1  0  0  0  0
 25 26  1  0  0  0  0
 21 27  1  0  0  0  0
 18 28  2  0  0  0  0
 16 29  1  0  0  0  0
 29 30  1  0  0  0  0
 11 31  1  1  0  0  0
M  END
>  <Name>
Ranolazine

>  <CAS #>
95635-55-5

>  <human Clearance (mL/min/kg)>
9.5

>  <Primary mechanism (metabolic, biliary or renal)>
metabolic

>  <seqId>
774.0

>  <Code (mechanism and clearance degree index)>
M1

>  < Five M1 and R1 test groups>
M1_1

>  <formamide>
0

>  <prodrug phosphates>
0

>  <VolSurf_V>
987.875

>  <VolSurf_S>
670.615

>  <VolSurf_R>
1.47309

>  <VolSurf_G>
1.65303

>  <VolSurf_IW1>
0.0345175

>  <VolSurf_IW2>
0.114804

>  <VolSurf_IW3>
0.229461

>  <VolSurf_IW4>
0.367685

>  <VolSurf_ID1>
0.0270709

>  <VolSurf_ID2>
0.0471796

>  <VolSurf_ID3>
0.0733021

>  <VolSurf_ID4>
0.0899324

>  <VolSurf_HL1>
1.9734

>  <VolSurf_HL2>
1.92063

>  <VolSurf_A>
3.00132

>  <VolSurf_CP>
1.2323

>  <VolSurf_POL>
47.225

>  <VolSurf_MW>
427.536

>  <VolSurf_FLEX>
3.29413

>  <VolSurf_FLEX_RB>
0.253395

>  <VolSurf_NCC>
0.0

>  <VolSurf_LOGP n-Oct>
2.284

>  <VolSurf_LOGP c-Hex>
1.341

>  <VolSurf_PSA>
78.67

>  <VolSurf_HSA>
591.945

>  <VolSurf_PSAR>
0.11731

>  <VolSurf_PHSAR>
0.132901

>  <VolSurf_LgD5>
0.561686

>  <VolSurf_LgD6>
1.48777

>  <VolSurf_LgD7>
2.10036

>  <VolSurf_LgD7.5>
2.21713

>  <VolSurf_LgD8>
2.26172

>  <VolSurf_LgD9>
2.28171

>  <VolSurf_LgD10>
2.28367

>  <VolSurf_AUS7.4>
1.92101

>  <VolSurf_%FU4>
0.186898

>  <VolSurf_%FU5>
1.86104

>  <VolSurf_%FU6>
15.9576

>  <VolSurf_%FU7>
65.5053

>  <VolSurf_%FU8>
94.9973

>  <VolSurf_%FU9>
99.4739

>  <VolSurf_%FU10>
99.9246

>  <ID>
368

>  <MOKAID>
369

>  <Clearance Route>
possible billary

>  <PC1>
2.4653

>  <PC2>
-2.69369

$$$$
Reboxetine
  -OEChem-08301611272D

 23 25  0     1  0  0  0  0  0999 V2000
    4.3346    1.4950    0.0000 C   0  0  0  0  0  0  0  0  0  0  0  0
    3.4678    0.9962    0.0000 C   0  0  0  0  0  0  0  0  0  0  0  0
    3.4664   -0.0038    0.0000 O   0  0  0  0  0  0  0  0  0  0  0  0
    2.5996   -0.5025    0.0000 C   0  0  0  0  0  0  0  0  0  0  0  0
    2.5967   -1.5025    0.0000 C   0  0  0  0  0  0  0  0  0  0  0  0
    1.7321   -2.0051    0.0000 C   0  0  0  0  0  0  0  0  0  0  0  0
    0.8616   -1.5025    0.0000 C   0  0  0  0  0  0  0  0  0  0  0  0
    0.8557   -0.4973    0.0000 C   0  0  0  0  0  0  0  0  0  0  0  0
    1.7291    0.0001    0.0000 C   0  0  0  0  0  0  0  0  0  0  0  0
    1.7320    1.0001    0.0000 O   0  0  0  0  0  0  0  0  0  0  0  0
    0.8675    1.5026    0.0000 C   0  0  1  0  0  0  0  0  0  0  0  0
    0.0000    1.0052    0.0000 C   0  0  1  0  0  0  0  0  0  0  0  0
    0.0000    0.0000    0.0000 C   0  0  0  0  0  0  0  0  0  0  0  0
   -0.8675   -0.4975    0.0000 N   0  0  0  0  0  0  0  0  0  0  0  0
   -1.7350    0.0000    0.0000 C   0  0  0  0  0  0  0  0  0  0  0  0
   -1.7350    1.0052    0.0000 C   0  0  0  0  0  0  0  0  0  0  0  0
   -0.8675    1.5129    0.0000 O   0  0  0  0  0  0  0  0  0  0  0  0
    0.8704    2.5026    0.0000 C   0  0  0  0  0  0  0  0  0  0  0  0
   -0.0001    3.0052    0.0000 C   0  0  0  0  0  0  0  0  0  0  0  0
    0.0028    4.0053    0.0000 C   0  0  0  0  0  0  0  0  0  0  0  0
    0.8674    4.5078    0.0000 C   0  0  0  0  0  0  0  0  0  0  0  0
    1.7379    4.0052    0.0000 C   0  0  0  0  0  0  0  0  0  0  0  0
    1.7439    3.0001    0.0000 C   0  0  0  0  0  0  0  0  0  0  0  0
  1  2  1  0  0  0  0
  2  3  1  0  0  0  0
  3  4  1  0  0  0  0
  4  9  2  0  0  0  0
  4  5  1  0  0  0  0
  5  6  2  0  0  0  0
  6  7  1  0  0  0  0
  7  8  2  0  0  0  0
  8  9  1  0  0  0  0
  9 10  1  0  0  0  0
 11 10  1  1  0  0  0
 11 12  1  0  0  0  0
 12 17  1  0  0  0  0
 12 13  1  1  0  0  0
 13 14  1  0  0  0  0
 14 15  1  0  0  0  0
 15 16  1  0  0  0  0
 16 17  1  0  0  0  0
 11 18  1  0  0  0  0
 18 23  2  0  0  0  0
 18 19  1  0  0  0  0
 19 20  2  0  0  0  0
 20 21  1  0  0  0  0
 21 22  2  0  0  0  0
 22 23  1  0  0  0  0
M  END
>  <Name>
Reboxetine

>  <CAS #>
71620-89-8

>  <human Clearance (mL/min/kg)>
0.82

>  <Primary mechanism (metabolic, biliary or renal)>
metabolic

>  <seqId>
777.0

>  <Code (mechanism and clearance degree index)>
M1

>  < Five M1 and R1 test groups>
M1_1

>  <formamide>
0

>  <prodrug phosphates>
0

>  <VolSurf_V>
746.375

>  <VolSurf_S>
500.563

>  <VolSurf_R>
1.49107

>  <VolSurf_G>
1.41093

>  <VolSurf_IW1>
0.0536454

>  <VolSurf_IW2>
0.270739

>  <VolSurf_IW3>
0.650259

>  <VolSurf_IW4>
0.814267

>  <VolSurf_ID1>
0.0423869

>  <VolSurf_ID2>
0.11184

>  <VolSurf_ID3>
0.178938

>  <VolSurf_ID4>
0.226935

>  <VolSurf_HL1>
0.949153

>  <VolSurf_HL2>
0.738462

>  <VolSurf_A>
6.09359

>  <VolSurf_CP>
1.04182

>  <VolSurf_POL>
38.35

>  <VolSurf_MW>
314.399

>  <VolSurf_FLEX>
1.89886

>  <VolSurf_FLEX_RB>
0.271266

>  <VolSurf_NCC>
1.0

>  <VolSurf_LOGP n-Oct>
2.717

>  <VolSurf_LOGP c-Hex>
2.551

>  <VolSurf_PSA>
58.97

>  <VolSurf_HSA>
441.593

>  <VolSurf_PSAR>
0.117807

>  <VolSurf_PHSAR>
0.133539

>  <VolSurf_LgD5>
-0.444015

>  <VolSurf_LgD6>
0.237029

>  <VolSurf_LgD7>
1.17621

>  <VolSurf_LgD7.5>
1.64631

>  <VolSurf_LgD8>
2.07207

>  <VolSurf_LgD9>
2.58927

>  <VolSurf_LgD10>
2.7024

>  <VolSurf_AUS7.4>
0.877386

>  <VolSurf_%FU4>
0.00292302

>  <VolSurf_%FU5>
0.0292225

>  <VolSurf_%FU6>
0.291458

>  <VolSurf_%FU7>
2.84008

>  <VolSurf_%FU8>
22.6192

>  <VolSurf_%FU9>
74.51

>  <VolSurf_%FU10>
96.6921

>  <ID>
369

>  <MOKAID>
370

>  <Clearance Route>
metabolic

>  <PC1>
2.24422

>  <PC2>
0.58545

$$$$
Remifentanil
  -OEChem-08301611272D

 27 28  0     0  0  0  0  0  0999 V2000
    3.4365   -0.0569    0.0000 C   0  0  0  0  0  0  0  0  0  0  0  0
    2.4515   -0.2296    0.0000 C   0  0  0  0  0  0  0  0  0  0  0  0
    2.1086   -1.1690    0.0000 C   0  0  0  0  0  0  0  0  0  0  0  0
    2.7506   -1.9356    0.0000 O   0  0  0  0  0  0  0  0  0  0  0  0
    1.1236   -1.3417    0.0000 N   0  0  0  0  0  0  0  0  0  0  0  0
    0.5235   -2.9855    0.0000 C   0  0  0  0  0  0  0  0  0  0  0  0
    1.1711   -3.7543    0.0000 C   0  0  0  0  0  0  0  0  0  0  0  0
    0.8282   -4.6937    0.0000 C   0  0  0  0  0  0  0  0  0  0  0  0
   -0.1558   -4.8722    0.0000 C   0  0  0  0  0  0  0  0  0  0  0  0
   -0.8034   -4.1034    0.0000 C   0  0  0  0  0  0  0  0  0  0  0  0
   -0.4671   -3.1562    0.0000 C   0  0  0  0  0  0  0  0  0  0  0  0
    0.0000    0.0000    0.0000 C   0  0  0  0  0  0  0  0  0  0  0  0
   -0.8675    0.4975    0.0000 C   0  0  0  0  0  0  0  0  0  0  0  0
   -0.8675    1.5027    0.0000 C   0  0  0  0  0  0  0  0  0  0  0  0
    0.0000    2.0104    0.0000 N   0  0  0  0  0  0  0  0  0  0  0  0
    0.0000    3.0104    0.0000 C   0  0  0  0  0  0  0  0  0  0  0  0
   -0.8660    3.5104    0.0000 C   0  0  0  0  0  0  0  0  0  0  0  0
   -0.8660    4.5104    0.0000 C   0  0  0  0  0  0  0  0  0  0  0  0
    0.0000    5.0104    0.0000 O   0  0  0  0  0  0  0  0  0  0  0  0
   -1.7320    5.0104    0.0000 O   0  0  0  0  0  0  0  0  0  0  0  0
   -1.7320    6.0104    0.0000 C   0  0  0  0  0  0  0  0  0  0  0  0
    0.8675    1.5027    0.0000 C   0  0  0  0  0  0  0  0  0  0  0  0
    0.8675    0.4975    0.0000 C   0  0  0  0  0  0  0  0  0  0  0  0
   -0.6420   -0.7667    0.0000 C   0  0  0  0  0  0  0  0  0  0  0  0
   -0.2991   -1.7060    0.0000 O   0  0  0  0  0  0  0  0  0  0  0  0
   -1.6270   -0.5940    0.0000 O   0  0  0  0  0  0  0  0  0  0  0  0
   -2.2691   -1.3606    0.0000 C   0  0  0  0  0  0  0  0  0  0  0  0
  1  2  1  0  0  0  0
  2  3  1  0  0  0  0
  3  4  2  0  0  0  0
  3  5  1  0  0  0  0
  5  6  1  0  0  0  0
  6 11  2  0  0  0  0
  6  7  1  0  0  0  0
  7  8  2  0  0  0  0
  8  9  1  0  0  0  0
  9 10  2  0  0  0  0
 10 11  1  0  0  0  0
  5 12  1  0  0  0  0
 12 23  1  0  0  0  0
 12 13  1  0  0  0  0
 13 14  1  0  0  0  0
 14 15  1  0  0  0  0
 15 16  1  0  0  0  0
 16 17  1  0  0  0  0
 17 18  1  0  0  0  0
 18 19  2  0  0  0  0
 18 20  1  0  0  0  0
 20 21  1  0  0  0  0
 15 22  1  0  0  0  0
 22 23  1  0  0  0  0
 12 24  1  0  0  0  0
 24 25  2  0  0  0  0
 24 26  1  0  0  0  0
 26 27  1  0  0  0  0
M  END
>  <Name>
Remifentanil

>  <CAS #>
132875-61-7

>  <human Clearance (mL/min/kg)>
37.0

>  <Primary mechanism (metabolic, biliary or renal)>
metabolic

>  <seqId>
780.0

>  <Code (mechanism and clearance degree index)>
M1

>  < Five M1 and R1 test groups>
M1_4

>  <formamide>
0

>  <prodrug phosphates>
0

>  <VolSurf_V>
849.0

>  <VolSurf_S>
561.89

>  <VolSurf_R>
1.51097

>  <VolSurf_G>
1.47517

>  <VolSurf_IW1>
0.0518094

>  <VolSurf_IW2>
0.138978

>  <VolSurf_IW3>
0.235233

>  <VolSurf_IW4>
0.352897

>  <VolSurf_ID1>
0.0751006

>  <VolSurf_ID2>
0.132287

>  <VolSurf_ID3>
0.194561

>  <VolSurf_ID4>
0.261275

>  <VolSurf_HL1>
4.69189

>  <VolSurf_HL2>
5.15556

>  <VolSurf_A>
4.88092

>  <VolSurf_CP>
0.224558

>  <VolSurf_POL>
39.419

>  <VolSurf_MW>
376.447

>  <VolSurf_FLEX>
2.14364

>  <VolSurf_FLEX_RB>
0.164895

>  <VolSurf_NCC>
0.0

>  <VolSurf_LOGP n-Oct>
2.287

>  <VolSurf_LOGP c-Hex>
2.16

>  <VolSurf_PSA>
75.92

>  <VolSurf_HSA>
485.97

>  <VolSurf_PSAR>
0.135115

>  <VolSurf_PHSAR>
0.156224

>  <VolSurf_LgD5>
0.0693434

>  <VolSurf_LgD6>
1.02453

>  <VolSurf_LgD7>
1.84932

>  <VolSurf_LgD7.5>
2.09658

>  <VolSurf_LgD8>
2.21731

>  <VolSurf_LgD9>
2.27951

>  <VolSurf_LgD10>
2.28624

>  <VolSurf_AUS7.4>
1.77641

>  <VolSurf_%FU4>
0.0573974

>  <VolSurf_%FU5>
0.571025

>  <VolSurf_%FU6>
5.43113

>  <VolSurf_%FU7>
36.4799

>  <VolSurf_%FU8>
85.1699

>  <VolSurf_%FU9>
98.2886

>  <VolSurf_%FU10>
99.8262

>  <ID>
370

>  <MOKAID>
371

>  <Clearance Route>
metabolic

>  <PC1>
2.14056

>  <PC2>
-0.839888

$$$$
Remoxipride
  -OEChem-08301611272D

 22 23  0     1  0  0  0  0  0999 V2000
   -0.3675    3.0415    0.0000 C   0  0  0  0  0  0  0  0  0  0  0  0
    0.4993    2.5428    0.0000 C   0  0  0  0  0  0  0  0  0  0  0  0
    0.5008    1.5428    0.0000 N   0  0  3  0  0  0  0  0  0  0  0  0
   -0.3065    0.9519    0.0000 C   0  0  0  0  0  0  0  0  0  0  0  0
    0.0000    0.0000    0.0000 C   0  0  0  0  0  0  0  0  0  0  0  0
    1.0015    0.0000    0.0000 C   0  0  0  0  0  0  0  0  0  0  0  0
    1.3133    0.9519    0.0000 C   0  0  1  0  0  0  0  0  0  0  0  0
    2.2648    1.2596    0.0000 C   0  0  0  0  0  0  0  0  0  0  0  0
    2.4741    2.2374    0.0000 N   0  0  0  0  0  0  0  0  0  0  0  0
    3.4256    2.5451    0.0000 C   0  0  0  0  0  0  0  0  0  0  0  0
    4.1678    1.8749    0.0000 O   0  0  0  0  0  0  0  0  0  0  0  0
    3.6349    3.5229    0.0000 C   0  0  0  0  0  0  0  0  0  0  0  0
    4.5923    3.8294    0.0000 C   0  0  0  0  0  0  0  0  0  0  0  0
    5.3334    3.1581    0.0000 O   0  0  0  0  0  0  0  0  0  0  0  0
    6.2854    3.4643    0.0000 C   0  0  0  0  0  0  0  0  0  0  0  0
    4.8016    4.8072    0.0000 C   0  0  0  0  0  0  0  0  0  0  0  0
    4.0633    5.4818    0.0000 C   0  0  0  0  0  0  0  0  0  0  0  0
    3.1060    5.1753    0.0000 C   0  0  0  0  0  0  0  0  0  0  0  0
    2.3678    5.8499    0.0000 Br  0  0  0  0  0  0  0  0  0  0  0  0
    2.8869    4.1944    0.0000 C   0  0  0  0  0  0  0  0  0  0  0  0
    1.9345    3.8895    0.0000 O   0  0  0  0  0  0  0  0  0  0  0  0
    1.7223    2.9123    0.0000 C   0  0  0  0  0  0  0  0  0  0  0  0
  1  2  1  0  0  0  0
  2  3  1  0  0  0  0
  3  7  1  0  0  0  0
  3  4  1  0  0  0  0
  4  5  1  0  0  0  0
  5  6  1  0  0  0  0
  6  7  1  0  0  0  0
  7  8  1  6  0  0  0
  8  9  1  0  0  0  0
  9 10  1  0  0  0  0
 10 11  2  0  0  0  0
 10 12  1  0  0  0  0
 12 20  2  0  0  0  0
 12 13  1  0  0  0  0
 13 14  1  0  0  0  0
 14 15  1  0  0  0  0
 13 16  2  0  0  0  0
 16 17  1  0  0  0  0
 17 18  2  0  0  0  0
 18 19  1  0  0  0  0
 18 20  1  0  0  0  0
 20 21  1  0  0  0  0
 21 22  1  0  0  0  0
M  END
>  <Name>
Remoxipride

>  <CAS #>
80125-14-0

>  <human Clearance (mL/min/kg)>
1.7

>  <Primary mechanism (metabolic, biliary or renal)>
metabolic

>  <seqId>
782.0

>  <Code (mechanism and clearance degree index)>
M1

>  < Five M1 and R1 test groups>
M1_5

>  <formamide>
0

>  <prodrug phosphates>
0

>  <VolSurf_V>
769.5

>  <VolSurf_S>
517.117

>  <VolSurf_R>
1.48806

>  <VolSurf_G>
1.43697

>  <VolSurf_IW1>
0.0417101

>  <VolSurf_IW2>
0.218124

>  <VolSurf_IW3>
0.647973

>  <VolSurf_IW4>
1.08211

>  <VolSurf_ID1>
0.0251059

>  <VolSurf_ID2>
0.0906378

>  <VolSurf_ID3>
0.139294

>  <VolSurf_ID4>
0.164166

>  <VolSurf_HL1>
0.968553

>  <VolSurf_HL2>
0.878613

>  <VolSurf_A>
4.56926

>  <VolSurf_CP>
1.30545

>  <VolSurf_POL>
36.456

>  <VolSurf_MW>
372.277

>  <VolSurf_FLEX>
1.71205

>  <VolSurf_FLEX_RB>
0.190228

>  <VolSurf_NCC>
1.0

>  <VolSurf_LOGP n-Oct>
2.532

>  <VolSurf_LOGP c-Hex>
0.808

>  <VolSurf_PSA>
63.37

>  <VolSurf_HSA>
453.747

>  <VolSurf_PSAR>
0.122545

>  <VolSurf_PHSAR>
0.139659

>  <VolSurf_LgD5>
-0.310301

>  <VolSurf_LgD6>
-0.129402

>  <VolSurf_LgD7>
0.511978

>  <VolSurf_LgD7.5>
0.960393

>  <VolSurf_LgD8>
1.42221

>  <VolSurf_LgD9>
2.18853

>  <VolSurf_LgD10>
2.48163

>  <VolSurf_AUS7.4>
0.437091

>  <VolSurf_%FU4>
8.2732E-4

>  <VolSurf_%FU5>
0.00827258

>  <VolSurf_%FU6>
0.0826643

>  <VolSurf_%FU7>
0.820538

>  <VolSurf_%FU8>
7.64108

>  <VolSurf_%FU9>
45.2705

>  <VolSurf_%FU10>
89.0341

>  <ID>
371

>  <MOKAID>
372

>  <Clearance Route>
metabolic

>  <PC1>
1.41482

>  <PC2>
-0.320589

$$$$
Repaglinide
  -OEChem-08301611272D

 33 35  0     1  0  0  0  0  0999 V2000
   -3.4795   -3.9985    0.0000 C   0  0  0  0  0  0  0  0  0  0  0  0
   -3.4751   -2.9986    0.0000 C   0  0  0  0  0  0  0  0  0  0  0  0
   -4.3389   -2.4947    0.0000 O   0  0  0  0  0  0  0  0  0  0  0  0
   -4.3345   -1.4948    0.0000 C   0  0  0  0  0  0  0  0  0  0  0  0
   -3.4604   -0.9986    0.0000 C   0  0  0  0  0  0  0  0  0  0  0  0
   -3.4648    0.0065    0.0000 C   0  0  0  0  0  0  0  0  0  0  0  0
   -2.5996    0.5078    0.0000 C   0  0  0  0  0  0  0  0  0  0  0  0
   -2.6011    1.5078    0.0000 C   0  0  0  0  0  0  0  0  0  0  0  0
   -3.4678    2.0065    0.0000 O   0  0  0  0  0  0  0  0  0  0  0  0
   -1.7358    2.0091    0.0000 N   0  0  0  0  0  0  0  0  0  0  0  0
   -1.7373    3.0091    0.0000 C   0  0  1  0  0  0  0  0  0  0  0  0
   -2.6041    3.5078    0.0000 C   0  0  0  0  0  0  0  0  0  0  0  0
   -2.6056    4.5078    0.0000 C   0  0  0  0  0  0  0  0  0  0  0  0
   -1.7403    5.0091    0.0000 C   0  0  0  0  0  0  0  0  0  0  0  0
   -3.4723    5.0065    0.0000 C   0  0  0  0  0  0  0  0  0  0  0  0
   -0.8720    3.5104    0.0000 C   0  0  0  0  0  0  0  0  0  0  0  0
   -0.8721    4.5105    0.0000 C   0  0  0  0  0  0  0  0  0  0  0  0
   -0.0089    5.0155    0.0000 C   0  0  0  0  0  0  0  0  0  0  0  0
    0.8631    4.5155    0.0000 C   0  0  0  0  0  0  0  0  0  0  0  0
    0.8720    3.5104    0.0000 C   0  0  0  0  0  0  0  0  0  0  0  0
   -0.0000    3.0104    0.0000 C   0  0  0  0  0  0  0  0  0  0  0  0
   -0.0000    2.0104    0.0000 N   0  0  0  0  0  0  0  0  0  0  0  0
   -0.8675    1.5027    0.0000 C   0  0  0  0  0  0  0  0  0  0  0  0
   -0.8675    0.4975    0.0000 C   0  0  0  0  0  0  0  0  0  0  0  0
    0.0000    0.0000    0.0000 C   0  0  0  0  0  0  0  0  0  0  0  0
    0.8675    0.4975    0.0000 C   0  0  0  0  0  0  0  0  0  0  0  0
    0.8675    1.5027    0.0000 C   0  0  0  0  0  0  0  0  0  0  0  0
   -4.3346    0.5104    0.0000 C   0  0  0  0  0  0  0  0  0  0  0  0
   -5.2000    0.0091    0.0000 C   0  0  0  0  0  0  0  0  0  0  0  0
   -5.2043   -0.9909    0.0000 C   0  0  0  0  0  0  0  0  0  0  0  0
   -6.0718   -1.4884    0.0000 C   0  0  0  0  0  0  0  0  0  0  0  0
   -6.9364   -0.9859    0.0000 O   0  0  0  0  0  0  0  0  0  0  0  0
   -6.0747   -2.4884    0.0000 O   0  0  0  0  0  0  0  0  0  0  0  0
  1  2  1  0  0  0  0
  2  3  1  0  0  0  0
  3  4  1  0  0  0  0
  4 30  2  0  0  0  0
  4  5  1  0  0  0  0
  5  6  2  0  0  0  0
  6  7  1  0  0  0  0
  7  8  1  0  0  0  0
  8  9  2  0  0  0  0
  8 10  1  0  0  0  0
 10 11  1  0  0  0  0
 11 12  1  1  0  0  0
 12 13  1  0  0  0  0
 13 14  1  0  0  0  0
 13 15  1  0  0  0  0
 11 16  1  0  0  0  0
 16 21  2  0  0  0  0
 16 17  1  0  0  0  0
 17 18  2  0  0  0  0
 18 19  1  0  0  0  0
 19 20  2  0  0  0  0
 20 21  1  0  0  0  0
 21 22  1  0  0  0  0
 22 27  1  0  0  0  0
 22 23  1  0  0  0  0
 23 24  1  0  0  0  0
 24 25  1  0  0  0  0
 25 26  1  0  0  0  0
 26 27  1  0  0  0  0
  6 28  1  0  0  0  0
 28 29  2  0  0  0  0
 29 30  1  0  0  0  0
 30 31  1  0  0  0  0
 31 32  2  0  0  0  0
 31 33  1  0  0  0  0
M  END
>  <Name>
Repaglinide

>  <CAS #>
135062-02-1

>  <human Clearance (mL/min/kg)>
7.8

>  <Primary mechanism (metabolic, biliary or renal)>
metabolic

>  <seqId>
783.0

>  <Code (mechanism and clearance degree index)>
M1

>  < Five M1 and R1 test groups>
M1_1

>  <formamide>
0

>  <prodrug phosphates>
0

>  <VolSurf_V>
1063.12

>  <VolSurf_S>
699.988

>  <VolSurf_R>
1.51878

>  <VolSurf_G>
1.63804

>  <VolSurf_IW1>
0.0961478

>  <VolSurf_IW2>
0.404787

>  <VolSurf_IW3>
0.916678

>  <VolSurf_IW4>
1.23578

>  <VolSurf_ID1>
0.0454465

>  <VolSurf_ID2>
0.0894289

>  <VolSurf_ID3>
0.134416

>  <VolSurf_ID4>
0.204486

>  <VolSurf_HL1>
1.55823

>  <VolSurf_HL2>
1.73896

>  <VolSurf_A>
9.64837

>  <VolSurf_CP>
0.779132

>  <VolSurf_POL>
49.447

>  <VolSurf_MW>
451.578

>  <VolSurf_FLEX>
3.26813

>  <VolSurf_FLEX_RB>
0.251394

>  <VolSurf_NCC>
1.0

>  <VolSurf_LOGP n-Oct>
5.829

>  <VolSurf_LOGP c-Hex>
1.673

>  <VolSurf_PSA>
89.66

>  <VolSurf_HSA>
610.328

>  <VolSurf_PSAR>
0.128088

>  <VolSurf_PHSAR>
0.146905

>  <VolSurf_LgD5>
3.19933

>  <VolSurf_LgD6>
2.70907

>  <VolSurf_LgD7>
2.46784

>  <VolSurf_LgD7.5>
2.44041

>  <VolSurf_LgD8>
2.43129

>  <VolSurf_LgD9>
2.42743

>  <VolSurf_LgD10>
2.42704

>  <VolSurf_AUS7.4>
0.0

>  <VolSurf_%FU4>
0.0

>  <VolSurf_%FU5>
0.0

>  <VolSurf_%FU6>
0.0

>  <VolSurf_%FU7>
0.0

>  <VolSurf_%FU8>
0.0

>  <VolSurf_%FU9>
0.0

>  <VolSurf_%FU10>
0.0

>  <ID>
372

>  <MOKAID>
373

>  <Clearance Route>
possible billary

>  <PC1>
2.03852

>  <PC2>
-1.9799200000000001

$$$$
Repinotan
  -OEChem-08301611272D

 28 31  0     1  0  0  0  0  0999 V2000
    3.0028   -1.2637    0.0000 O   0  0  0  0  0  0  0  0  0  0  0  0
    2.6938   -0.3126    0.0000 C   0  0  0  0  0  0  0  0  0  0  0  0
    3.2858    0.5022    0.0000 N   0  0  0  0  0  0  0  0  0  0  0  0
    4.2858    0.5023    0.0000 C   0  0  0  0  0  0  0  0  0  0  0  0
    4.7857    1.3683    0.0000 C   0  0  0  0  0  0  0  0  0  0  0  0
    5.7857    1.3684    0.0000 C   0  0  0  0  0  0  0  0  0  0  0  0
    6.2857    2.2344    0.0000 C   0  0  0  0  0  0  0  0  0  0  0  0
    7.2857    2.2345    0.0000 N   0  0  0  0  0  0  0  0  0  0  0  0
    7.7856    3.1005    0.0000 C   0  0  0  0  0  0  0  0  0  0  0  0
    8.7856    3.1006    0.0000 C   0  0  1  0  0  0  0  0  0  0  0  0
    9.2882    3.9732    0.0000 C   0  0  0  0  0  0  0  0  0  0  0  0
   10.2945    3.9716    0.0000 C   0  0  0  0  0  0  0  0  0  0  0  0
   10.7960    3.1047    0.0000 C   0  0  0  0  0  0  0  0  0  0  0  0
   11.7961    3.1032    0.0000 C   0  0  0  0  0  0  0  0  0  0  0  0
   12.3009    2.2393    0.0000 C   0  0  0  0  0  0  0  0  0  0  0  0
   11.8002    1.3671    0.0000 C   0  0  0  0  0  0  0  0  0  0  0  0
   10.7944    1.3587    0.0000 C   0  0  0  0  0  0  0  0  0  0  0  0
   10.2935    2.2322    0.0000 C   0  0  0  0  0  0  0  0  0  0  0  0
    9.2893    2.2262    0.0000 O   0  0  0  0  0  0  0  0  0  0  0  0
    2.6938    1.3168    0.0000 S   0  0  0  0  0  0  0  0  0  0  0  0
    2.2871    2.2304    0.0000 O   0  0  0  0  0  0  0  0  0  0  0  0
    3.5598    1.8168    0.0000 O   0  0  0  0  0  0  0  0  0  0  0  0
    1.7360    1.0058    0.0000 C   0  0  0  0  0  0  0  0  0  0  0  0
    0.8680    1.5137    0.0000 C   0  0  0  0  0  0  0  0  0  0  0  0
    0.0000    1.0058    0.0000 C   0  0  0  0  0  0  0  0  0  0  0  0
    0.0000    0.0000    0.0000 C   0  0  0  0  0  0  0  0  0  0  0  0
    0.8680   -0.4979    0.0000 C   0  0  0  0  0  0  0  0  0  0  0  0
    1.7360   -0.0013    0.0000 C   0  0  0  0  0  0  0  0  0  0  0  0
  1  2  2  0  0  0  0
  2 28  1  0  0  0  0
  2  3  1  0  0  0  0
  3  4  1  0  0  0  0
  4  5  1  0  0  0  0
  5  6  1  0  0  0  0
  6  7  1  0  0  0  0
  7  8  1  0  0  0  0
  8  9  1  0  0  0  0
 10  9  1  1  0  0  0
 10 19  1  0  0  0  0
 10 11  1  0  0  0  0
 11 12  1  0  0  0  0
 12 13  1  0  0  0  0
 13 18  2  0  0  0  0
 13 14  1  0  0  0  0
 14 15  2  0  0  0  0
 15 16  1  0  0  0  0
 16 17  2  0  0  0  0
 17 18  1  0  0  0  0
 18 19  1  0  0  0  0
  3 20  1  0  0  0  0
 20 21  2  0  0  0  0
 20 22  2  0  0  0  0
 20 23  1  0  0  0  0
 23 28  2  0  0  0  0
 23 24  1  0  0  0  0
 24 25  2  0  0  0  0
 25 26  1  0  0  0  0
 26 27  2  0  0  0  0
 27 28  1  0  0  0  0
M  END
>  <Name>
Repinotan

>  <CAS #>
144980-29-0

>  <human Clearance (mL/min/kg)>
2.2

>  <Primary mechanism (metabolic, biliary or renal)>
metabolic

>  <seqId>
784.0

>  <Code (mechanism and clearance degree index)>
M1

>  < Five M1 and R1 test groups>
M1_1

>  <formamide>
0

>  <prodrug phosphates>
0

>  <VolSurf_V>
885.375

>  <VolSurf_S>
611.993

>  <VolSurf_R>
1.44671

>  <VolSurf_G>
1.60793

>  <VolSurf_IW1>
0.0710924

>  <VolSurf_IW2>
0.224918

>  <VolSurf_IW3>
0.445118

>  <VolSurf_IW4>
0.917981

>  <VolSurf_ID1>
0.0372647

>  <VolSurf_ID2>
0.118042

>  <VolSurf_ID3>
0.317857

>  <VolSurf_ID4>
0.422296

>  <VolSurf_HL1>
2.39939

>  <VolSurf_HL2>
1.86765

>  <VolSurf_A>
6.53597

>  <VolSurf_CP>
0.446604

>  <VolSurf_POL>
45.518

>  <VolSurf_MW>
401.499

>  <VolSurf_FLEX>
3.47191

>  <VolSurf_FLEX_RB>
0.495987

>  <VolSurf_NCC>
1.0

>  <VolSurf_LOGP n-Oct>
3.862

>  <VolSurf_LOGP c-Hex>
1.38

>  <VolSurf_PSA>
97.2525

>  <VolSurf_HSA>
514.741

>  <VolSurf_PSAR>
0.158911

>  <VolSurf_PHSAR>
0.188935

>  <VolSurf_LgD5>
1.27897

>  <VolSurf_LgD6>
2.25076

>  <VolSurf_LgD7>
3.16277

>  <VolSurf_LgD7.5>
3.50669

>  <VolSurf_LgD8>
3.71572

>  <VolSurf_LgD9>
3.84495

>  <VolSurf_LgD10>
3.86026

>  <VolSurf_AUS7.4>
1.59375

>  <VolSurf_%FU4>
0.0249599

>  <VolSurf_%FU5>
0.24904

>  <VolSurf_%FU6>
2.4358

>  <VolSurf_%FU7>
19.9783

>  <VolSurf_%FU8>
71.4009

>  <VolSurf_%FU9>
96.1488

>  <VolSurf_%FU10>
99.6011

>  <ID>
373

>  <MOKAID>
374

>  <Clearance Route>
metabolic

>  <PC1>
3.10974

>  <PC2>
-0.988116

$$$$
Ribostamycin
  -OEChem-08301611272D

 31 33  0     1  0  0  0  0  0999 V2000
    1.7379    3.0001    0.0000 N   0  0  0  0  0  0  0  0  0  0  0  0
    1.7350    2.0001    0.0000 C   0  0  0  0  0  0  0  0  0  0  0  0
    0.8675    1.5027    0.0000 C   0  0  1  0  0  0  0  0  0  0  0  0
   -0.0000    2.0104    0.0000 O   0  0  0  0  0  0  0  0  0  0  0  0
   -0.8675    1.5027    0.0000 C   0  0  2  0  0  0  0  0  0  0  0  0
   -1.7350    2.0001    0.0000 O   0  0  0  0  0  0  0  0  0  0  0  0
   -1.7379    3.0001    0.0000 C   0  0  2  0  0  0  0  0  0  0  0  0
   -0.8674    3.5027    0.0000 C   0  0  1  0  0  0  0  0  0  0  0  0
   -0.0007    3.0040    0.0000 N   0  0  0  0  0  0  0  0  0  0  0  0
   -0.8703    4.5028    0.0000 C   0  0  0  0  0  0  0  0  0  0  0  0
   -1.7349    5.0053    0.0000 C   0  0  1  0  0  0  0  0  0  0  0  0
   -1.7335    6.0053    0.0000 N   0  0  0  0  0  0  0  0  0  0  0  0
   -2.6054    4.5027    0.0000 C   0  0  2  0  0  0  0  0  0  0  0  0
   -3.4700    5.0052    0.0000 O   0  0  0  0  0  0  0  0  0  0  0  0
   -2.6114    3.4976    0.0000 C   0  0  1  0  0  0  0  0  0  0  0  0
   -3.4774    2.9976    0.0000 O   0  0  0  0  0  0  0  0  0  0  0  0
   -4.3434    3.4976    0.0000 C   0  0  2  0  0  0  0  0  0  0  0  0
   -4.4494    4.4966    0.0000 O   0  0  0  0  0  0  0  0  0  0  0  0
   -5.4290    4.6998    0.0000 C   0  0  2  0  0  0  0  0  0  0  0  0
   -5.8374    5.6126    0.0000 C   0  0  0  0  0  0  0  0  0  0  0  0
   -6.8322    5.7152    0.0000 O   0  0  0  0  0  0  0  0  0  0  0  0
   -5.9301    3.8343    0.0000 C   0  0  1  0  0  0  0  0  0  0  0  0
   -6.9246    3.7297    0.0000 O   0  0  0  0  0  0  0  0  0  0  0  0
   -5.2589    3.0910    0.0000 C   0  0  1  0  0  0  0  0  0  0  0  0
   -5.4666    2.1128    0.0000 O   0  0  0  0  0  0  0  0  0  0  0  0
   -0.8675    0.4975    0.0000 C   0  0  2  0  0  0  0  0  0  0  0  0
   -1.7328   -0.0038    0.0000 N   0  0  0  0  0  0  0  0  0  0  0  0
    0.0000    0.0000    0.0000 C   0  0  1  0  0  0  0  0  0  0  0  0
    0.0000   -1.0000    0.0000 O   0  0  0  0  0  0  0  0  0  0  0  0
    0.8675    0.4975    0.0000 C   0  0  2  0  0  0  0  0  0  0  0  0
    1.7328   -0.0038    0.0000 O   0  0  0  0  0  0  0  0  0  0  0  0
  1  2  1  0  0  0  0
  3  2  1  6  0  0  0
  3 30  1  0  0  0  0
  3  4  1  0  0  0  0
  4  5  1  0  0  0  0
  5  6  1  1  0  0  0
  7  6  1  1  0  0  0
  7 15  1  0  0  0  0
  7  8  1  0  0  0  0
  8  9  1  6  0  0  0
  8 10  1  0  0  0  0
 10 11  1  0  0  0  0
 11 12  1  6  0  0  0
 11 13  1  0  0  0  0
 13 14  1  1  0  0  0
 13 15  1  0  0  0  0
 15 16  1  6  0  0  0
 17 16  1  1  0  0  0
 17 24  1  0  0  0  0
 17 18  1  0  0  0  0
 18 19  1  0  0  0  0
 19 20  1  1  0  0  0
 20 21  1  0  0  0  0
 19 22  1  0  0  0  0
 22 23  1  6  0  0  0
 22 24  1  0  0  0  0
 24 25  1  6  0  0  0
  5 26  1  0  0  0  0
 26 27  1  1  0  0  0
 26 28  1  0  0  0  0
 28 29  1  6  0  0  0
 28 30  1  0  0  0  0
 30 31  1  1  0  0  0
M  END
>  <Name>
Ribostamycin

>  <CAS #>
25546-65-0

>  <human Clearance (mL/min/kg)>
1.5

>  <Primary mechanism (metabolic, biliary or renal)>
renal

>  <seqId>
786.0

>  <Code (mechanism and clearance degree index)>
R1

>  < Five M1 and R1 test groups>
R1_4

>  <formamide>
0

>  <prodrug phosphates>
0

>  <VolSurf_V>
819.125

>  <VolSurf_S>
549.312

>  <VolSurf_R>
1.49118

>  <VolSurf_G>
1.47792

>  <VolSurf_IW1>
0.0140455

>  <VolSurf_IW2>
0.0214475

>  <VolSurf_IW3>
0.0505115

>  <VolSurf_IW4>
0.141532

>  <VolSurf_ID1>
0.0263211

>  <VolSurf_ID2>
0.0

>  <VolSurf_ID3>
0.0

>  <VolSurf_ID4>
0.0

>  <VolSurf_HL1>
730.5

>  <VolSurf_HL2>
399.75

>  <VolSurf_A>
0.0

>  <VolSurf_CP>
0.0

>  <VolSurf_POL>
45.267

>  <VolSurf_MW>
456.488

>  <VolSurf_FLEX>
2.0932

>  <VolSurf_FLEX_RB>
0.130825

>  <VolSurf_NCC>
2.0

>  <VolSurf_LOGP n-Oct>
-7.275

>  <VolSurf_LOGP c-Hex>
-9.0

>  <VolSurf_PSA>
292.76

>  <VolSurf_HSA>
256.552

>  <VolSurf_PSAR>
0.532958

>  <VolSurf_PHSAR>
1.14114

>  <VolSurf_LgD5>
-9.0

>  <VolSurf_LgD6>
-9.0

>  <VolSurf_LgD7>
-9.0

>  <VolSurf_LgD7.5>
-8.49593

>  <VolSurf_LgD8>
-7.87074

>  <VolSurf_LgD9>
-7.35978

>  <VolSurf_LgD10>
-7.28462

>  <VolSurf_AUS7.4>
0.687716

>  <VolSurf_%FU4>
1.1666E-10

>  <VolSurf_%FU5>
9.81422E-7

>  <VolSurf_%FU6>
0.00292108

>  <VolSurf_%FU7>
0.796255

>  <VolSurf_%FU8>
25.3366

>  <VolSurf_%FU9>
82.2554

>  <VolSurf_%FU10>
97.8078

>  <ID>
374

>  <MOKAID>
375

>  <Clearance Route>
renal

>  <PC1>
-9.945039999999999

>  <PC2>
-0.0813193

$$$$
Rifabutin
  -OEChem-08301611272D

 61 66  0     1  0  0  0  0  0999 V2000
    1.7321    2.2189    0.0000 C   0  0  0  0  0  0  0  0  0  0  0  0
    0.8660    1.7190    0.0000 O   0  0  0  0  0  0  0  0  0  0  0  0
   -0.0000    2.2190    0.0000 C   0  0  1  0  0  0  0  0  0  0  0  0
   -0.0000    3.3286    0.0000 C   0  0  0  0  0  0  0  0  0  0  0  0
    0.9608    3.8835    0.0000 C   0  0  0  0  0  0  0  0  0  0  0  0
    0.9608    4.9928    0.0000 O   0  0  0  0  0  0  0  0  0  0  0  0
    3.4092    4.9550    0.0000 C   0  0  1  0  0  0  0  0  0  0  0  0
    3.4169    5.9550    0.0000 C   0  0  0  0  0  0  0  0  0  0  0  0
    3.0116    3.8835    0.0000 O   0  0  0  0  0  0  0  0  0  0  0  0
    3.8435    3.3286    0.0000 C   0  0  0  0  0  0  0  0  0  0  0  0
    3.8435    2.2190    0.0000 C   0  0  0  0  0  0  0  0  0  0  0  0
    2.9775    1.7189    0.0000 C   0  0  0  0  0  0  0  0  0  0  0  0
    4.8044    1.6644    0.0000 C   0  0  0  0  0  0  0  0  0  0  0  0
    4.8044    0.6644    0.0000 O   0  0  0  0  0  0  0  0  0  0  0  0
    5.7653    2.2190    0.0000 C   0  0  0  0  0  0  0  0  0  0  0  0
    6.7262    1.6644    0.0000 C   0  0  0  0  0  0  0  0  0  0  0  0
    6.7262    0.6644    0.0000 O   0  0  0  0  0  0  0  0  0  0  0  0
    7.6870    2.2190    0.0000 C   0  0  0  0  0  0  0  0  0  0  0  0
    7.6870    3.3286    0.0000 C   0  0  0  0  0  0  0  0  0  0  0  0
    8.5115    4.0710    0.0000 N   0  0  0  0  0  0  0  0  0  0  0  0
    8.0603    5.0846    0.0000 C   0  0  0  0  0  0  0  0  0  0  0  0
    9.1699    5.0846    0.0000 C   0  0  0  0  0  0  0  0  0  0  0  0
    9.7246    6.0455    0.0000 C   0  0  0  0  0  0  0  0  0  0  0  0
    9.1699    7.0064    0.0000 N   0  0  0  0  0  0  0  0  0  0  0  0
    9.6699    7.8724    0.0000 C   0  0  0  0  0  0  0  0  0  0  0  0
    9.1699    8.7384    0.0000 C   0  0  0  0  0  0  0  0  0  0  0  0
    8.1699    8.7385    0.0000 C   0  0  0  0  0  0  0  0  0  0  0  0
    9.6700    9.6045    0.0000 C   0  0  0  0  0  0  0  0  0  0  0  0
    8.0603    7.0064    0.0000 C   0  0  0  0  0  0  0  0  0  0  0  0
    7.5057    6.0455    0.0000 C   0  0  0  0  0  0  0  0  0  0  0  0
    6.9568    4.9687    0.0000 N   0  0  0  0  0  0  0  0  0  0  0  0
    6.7262    3.8835    0.0000 C   0  0  0  0  0  0  0  0  0  0  0  0
    5.7653    3.3286    0.0000 C   0  0  0  0  0  0  0  0  0  0  0  0
    4.8044    3.8835    0.0000 C   0  0  0  0  0  0  0  0  0  0  0  0
    4.5173    4.9550    0.0000 C   0  0  0  0  0  0  0  0  0  0  0  0
    5.1261    5.7483    0.0000 O   0  0  0  0  0  0  0  0  0  0  0  0
    8.6479    1.6644    0.0000 N   0  0  0  0  0  0  0  0  0  0  0  0
    8.6479    0.5548    0.0000 C   0  0  0  0  0  0  0  0  0  0  0  0
    9.5139    0.0548    0.0000 O   0  0  0  0  0  0  0  0  0  0  0  0
    7.6870   -0.0000    0.0000 C   0  0  0  0  0  0  0  0  0  0  0  0
    6.7262    0.5548    0.0000 C   0  0  0  0  0  0  0  0  0  0  0  0
    5.7653   -0.0000    0.0000 C   0  0  0  0  0  0  0  0  0  0  0  0
    4.8044    0.5548    0.0000 C   0  0  0  0  0  0  0  0  0  0  0  0
    3.8435   -0.0000    0.0000 C   0  0  2  0  0  0  0  0  0  0  0  0
    3.8435   -1.0000    0.0000 C   0  0  0  0  0  0  0  0  0  0  0  0
    2.8826    0.5548    0.0000 C   0  0  2  0  0  0  0  0  0  0  0  0
    2.8826    1.5548    0.0000 O   0  0  0  0  0  0  0  0  0  0  0  0
    1.9218   -0.0000    0.0000 C   0  0  1  0  0  0  0  0  0  0  0  0
    1.9218   -1.0000    0.0000 C   0  0  0  0  0  0  0  0  0  0  0  0
    0.9608    0.5548    0.0000 C   0  0  1  0  0  0  0  0  0  0  0  0
    0.9608    1.5548    0.0000 O   0  0  0  0  0  0  0  0  0  0  0  0
    0.0000    0.0000    0.0000 C   0  0  1  0  0  0  0  0  0  0  0  0
   -0.0000   -1.0000    0.0000 C   0  0  0  0  0  0  0  0  0  0  0  0
   -0.9608    0.5548    0.0000 C   0  0  2  0  0  0  0  0  0  0  0  0
   -1.8268    0.0548    0.0000 O   0  0  0  0  0  0  0  0  0  0  0  0
   -1.8269   -0.9452    0.0000 C   0  0  0  0  0  0  0  0  0  0  0  0
   -0.9609   -1.4452    0.0000 O   0  0  0  0  0  0  0  0  0  0  0  0
   -2.6929   -1.4452    0.0000 C   0  0  0  0  0  0  0  0  0  0  0  0
   -0.9608    1.6644    0.0000 C   0  0  2  0  0  0  0  0  0  0  0  0
   -1.8268    2.1644    0.0000 C   0  0  0  0  0  0  0  0  0  0  0  0
    7.6870   -1.0000    0.0000 C   0  0  0  0  0  0  0  0  0  0  0  0
  1  2  1  0  0  0  0
  3  2  1  6  0  0  0
  3 59  1  0  0  0  0
  3  4  1  0  0  0  0
  4  5  2  0  0  0  0
  5  6  1  0  0  0  0
  6  7  1  0  0  0  0
  7 35  1  0  0  0  0
  7  8  1  1  0  0  0
  7  9  1  0  0  0  0
  9 10  1  0  0  0  0
 10 34  2  0  0  0  0
 10 11  1  0  0  0  0
 11 12  1  0  0  0  0
 11 13  2  0  0  0  0
 13 14  1  0  0  0  0
 13 15  1  0  0  0  0
 15 33  2  0  0  0  0
 15 16  1  0  0  0  0
 16 17  2  0  0  0  0
 16 18  1  0  0  0  0
 18 19  2  0  0  0  0
 19 32  1  0  0  0  0
 19 20  1  0  0  0  0
 20 21  1  0  0  0  0
 21 30  1  0  0  0  0
 21 22  1  0  0  0  0
 22 23  1  0  0  0  0
 23 24  1  0  0  0  0
 24 25  1  0  0  0  0
 25 26  1  0  0  0  0
 26 27  1  0  0  0  0
 26 28  1  0  0  0  0
 24 29  1  0  0  0  0
 29 30  1  0  0  0  0
 21 31  1  0  0  0  0
 31 32  2  0  0  0  0
 32 33  1  0  0  0  0
 33 34  1  0  0  0  0
 34 35  1  0  0  0  0
 35 36  2  0  0  0  0
 18 37  1  0  0  0  0
 37 38  1  0  0  0  0
 38 39  2  0  0  0  0
 38 40  1  0  0  0  0
 40 41  2  0  0  0  0
 41 42  1  0  0  0  0
 42 43  2  0  0  0  0
 43 44  1  0  0  0  0
 44 45  1  6  0  0  0
 44 46  1  0  0  0  0
 46 47  1  1  0  0  0
 46 48  1  0  0  0  0
 48 49  1  1  0  0  0
 48 50  1  0  0  0  0
 50 51  1  6  0  0  0
 50 52  1  0  0  0  0
 52 53  1  1  0  0  0
 52 54  1  0  0  0  0
 54 55  1  6  0  0  0
 55 56  1  0  0  0  0
 56 57  2  0  0  0  0
 56 58  1  0  0  0  0
 54 59  1  0  0  0  0
 59 60  1  6  0  0  0
 40 61  1  0  0  0  0
M  END
>  <Name>
Rifabutin

>  <CAS #>
72559-06-9

>  <human Clearance (mL/min/kg)>
2.4

>  <Primary mechanism (metabolic, biliary or renal)>
metabolic

>  <seqId>
788.0

>  <Code (mechanism and clearance degree index)>
M1

>  < Five M1 and R1 test groups>
M1_1

>  <formamide>
0

>  <prodrug phosphates>
0

>  <VolSurf_V>
1634.0

>  <VolSurf_S>
985.219

>  <VolSurf_R>
1.65851

>  <VolSurf_G>
1.77959

>  <VolSurf_IW1>
0.0194593

>  <VolSurf_IW2>
0.0488202

>  <VolSurf_IW3>
0.111762

>  <VolSurf_IW4>
0.177382

>  <VolSurf_ID1>
0.0225205

>  <VolSurf_ID2>
0.0511402

>  <VolSurf_ID3>
0.0836321

>  <VolSurf_ID4>
0.0852375

>  <VolSurf_HL1>
3.20518

>  <VolSurf_HL2>
3.16049

>  <VolSurf_A>
2.33809

>  <VolSurf_CP>
0.558908

>  <VolSurf_POL>
88.0411

>  <VolSurf_MW>
845.996

>  <VolSurf_FLEX>
0.395306

>  <VolSurf_FLEX_RB>
0.0219614

>  <VolSurf_NCC>
1.0

>  <VolSurf_LOGP n-Oct>
6.307

>  <VolSurf_LOGP c-Hex>
-2.222

>  <VolSurf_PSA>
216.35

>  <VolSurf_HSA>
768.869

>  <VolSurf_PSAR>
0.219596

>  <VolSurf_PHSAR>
0.281387

>  <VolSurf_LgD5>
3.05077

>  <VolSurf_LgD6>
3.59659

>  <VolSurf_LgD7>
3.83937

>  <VolSurf_LgD7.5>
3.70752

>  <VolSurf_LgD8>
3.43014

>  <VolSurf_LgD9>
2.74484

>  <VolSurf_LgD10>
1.97704

>  <VolSurf_AUS7.4>
0.0

>  <VolSurf_%FU4>
0.0

>  <VolSurf_%FU5>
0.0

>  <VolSurf_%FU6>
0.0

>  <VolSurf_%FU7>
0.0

>  <VolSurf_%FU8>
0.0

>  <VolSurf_%FU9>
0.0

>  <VolSurf_%FU10>
0.0

>  <ID>
375

>  <MOKAID>
376

>  <Clearance Route>
possible billary

>  <PC1>
0.564243

>  <PC2>
-6.2948699999999995

$$$$
Rifampin
  -OEChem-08301611272D

 59 63  0     1  0  0  0  0  0999 V2000
    2.7164    2.8419    0.0000 C   0  0  0  0  0  0  0  0  0  0  0  0
    1.8504    3.3419    0.0000 O   0  0  0  0  0  0  0  0  0  0  0  0
    0.9844    2.8419    0.0000 C   0  0  1  0  0  0  0  0  0  0  0  0
   -0.0000    3.4102    0.0000 C   0  0  0  0  0  0  0  0  0  0  0  0
   -0.9844    2.8419    0.0000 C   0  0  0  0  0  0  0  0  0  0  0  0
   -1.9689    3.4102    0.0000 O   0  0  0  0  0  0  0  0  0  0  0  0
   -2.9534    2.8419    0.0000 C   0  0  1  0  0  0  0  0  0  0  0  0
   -3.2122    3.8078    0.0000 C   0  0  0  0  0  0  0  0  0  0  0  0
   -2.9534    1.7052    0.0000 O   0  0  0  0  0  0  0  0  0  0  0  0
   -3.9379    1.1367    0.0000 C   0  0  0  0  0  0  0  0  0  0  0  0
   -3.9379   -0.0000    0.0000 C   0  0  0  0  0  0  0  0  0  0  0  0
   -2.4223   -0.8750    0.0000 C   0  0  0  0  0  0  0  0  0  0  0  0
   -4.9223   -0.5684    0.0000 C   0  0  0  0  0  0  0  0  0  0  0  0
   -4.9223   -1.5684    0.0000 O   0  0  0  0  0  0  0  0  0  0  0  0
   -5.9067   -0.0000    0.0000 C   0  0  0  0  0  0  0  0  0  0  0  0
   -6.8912   -0.5684    0.0000 C   0  0  0  0  0  0  0  0  0  0  0  0
   -6.8912   -2.3184    0.0000 O   0  0  0  0  0  0  0  0  0  0  0  0
   -7.8756   -0.0000    0.0000 C   0  0  0  0  0  0  0  0  0  0  0  0
   -8.7526   -0.9436    0.0000 N   0  0  0  0  0  0  0  0  0  0  0  0
   -8.2263   -1.9964    0.0000 C   0  0  0  0  0  0  0  0  0  0  0  0
   -8.7461   -2.8507    0.0000 O   0  0  0  0  0  0  0  0  0  0  0  0
   -7.0047   -1.9793    0.0000 C   0  0  0  0  0  0  0  0  0  0  0  0
   -5.9105   -2.6806    0.0000 C   0  0  0  0  0  0  0  0  0  0  0  0
   -5.0683   -2.1016    0.0000 C   0  0  0  0  0  0  0  0  0  0  0  0
   -4.0683   -2.6279    0.0000 C   0  0  0  0  0  0  0  0  0  0  0  0
   -3.1210   -1.9964    0.0000 C   0  0  2  0  0  0  0  0  0  0  0  0
   -3.3309   -1.0187    0.0000 C   0  0  0  0  0  0  0  0  0  0  0  0
   -1.8577   -2.2069    0.0000 C   0  0  2  0  0  0  0  0  0  0  0  0
   -1.6408   -3.1831    0.0000 O   0  0  0  0  0  0  0  0  0  0  0  0
   -1.0156   -1.6279    0.0000 C   0  0  1  0  0  0  0  0  0  0  0  0
   -0.1306   -2.0934    0.0000 C   0  0  0  0  0  0  0  0  0  0  0  0
   -1.0156   -0.6279    0.0000 C   0  0  1  0  0  0  0  0  0  0  0  0
   -2.5442    0.2242    0.0000 O   0  0  0  0  0  0  0  0  0  0  0  0
    0.0000    0.0000    0.0000 C   0  0  1  0  0  0  0  0  0  0  0  0
    0.8735   -0.4869    0.0000 C   0  0  0  0  0  0  0  0  0  0  0  0
   -0.0000    1.1367    0.0000 C   0  0  2  0  0  0  0  0  0  0  0  0
   -0.8661    1.6367    0.0000 O   0  0  0  0  0  0  0  0  0  0  0  0
   -1.7321    1.1366    0.0000 C   0  0  0  0  0  0  0  0  0  0  0  0
   -1.7320    0.1366    0.0000 O   0  0  0  0  0  0  0  0  0  0  0  0
   -2.5981    1.6365    0.0000 C   0  0  0  0  0  0  0  0  0  0  0  0
    0.9844    1.7052    0.0000 C   0  0  2  0  0  0  0  0  0  0  0  0
    1.8505    1.2053    0.0000 C   0  0  0  0  0  0  0  0  0  0  0  0
   -6.7303   -1.0177    0.0000 C   0  0  0  0  0  0  0  0  0  0  0  0
   -7.8756    1.1367    0.0000 C   0  0  0  0  0  0  0  0  0  0  0  0
   -8.7417    1.6366    0.0000 C   0  0  0  0  0  0  0  0  0  0  0  0
   -9.6077    1.1366    0.0000 N   0  0  0  0  0  0  0  0  0  0  0  0
  -10.4737    1.6365    0.0000 N   0  0  0  0  0  0  0  0  0  0  0  0
  -10.4796    2.6415    0.0000 C   0  0  0  0  0  0  0  0  0  0  0  0
  -11.3501    3.1440    0.0000 C   0  0  0  0  0  0  0  0  0  0  0  0
  -12.2147    2.6415    0.0000 N   0  0  0  0  0  0  0  0  0  0  0  0
  -13.0807    3.1415    0.0000 C   0  0  0  0  0  0  0  0  0  0  0  0
  -12.2174    1.6415    0.0000 C   0  0  0  0  0  0  0  0  0  0  0  0
  -11.3469    1.1390    0.0000 C   0  0  0  0  0  0  0  0  0  0  0  0
   -6.8912    1.7052    0.0000 C   0  0  0  0  0  0  0  0  0  0  0  0
   -6.8912    2.7052    0.0000 O   0  0  0  0  0  0  0  0  0  0  0  0
   -5.9067    1.1367    0.0000 C   0  0  0  0  0  0  0  0  0  0  0  0
   -4.9223    1.7052    0.0000 C   0  0  0  0  0  0  0  0  0  0  0  0
   -4.9223    2.8419    0.0000 C   0  0  0  0  0  0  0  0  0  0  0  0
   -5.6294    3.5490    0.0000 O   0  0  0  0  0  0  0  0  0  0  0  0
  1  2  1  0  0  0  0
  3  2  1  6  0  0  0
  3 41  1  0  0  0  0
  3  4  1  0  0  0  0
  4  5  2  0  0  0  0
  5  6  1  0  0  0  0
  6  7  1  0  0  0  0
  7 58  1  0  0  0  0
  7  8  1  6  0  0  0
  7  9  1  0  0  0  0
  9 10  1  0  0  0  0
 10 57  2  0  0  0  0
 10 11  1  0  0  0  0
 11 12  1  0  0  0  0
 11 13  2  0  0  0  0
 13 14  1  0  0  0  0
 13 15  1  0  0  0  0
 15 56  2  0  0  0  0
 15 16  1  0  0  0  0
 16 17  1  0  0  0  0
 16 18  2  0  0  0  0
 18 19  1  0  0  0  0
 19 20  1  0  0  0  0
 20 21  2  0  0  0  0
 20 22  1  0  0  0  0
 22 23  2  0  0  0  0
 23 24  1  0  0  0  0
 24 25  2  0  0  0  0
 25 26  1  0  0  0  0
 26 27  1  6  0  0  0
 26 28  1  0  0  0  0
 28 29  1  1  0  0  0
 28 30  1  0  0  0  0
 30 31  1  6  0  0  0
 30 32  1  0  0  0  0
 32 33  1  1  0  0  0
 32 34  1  0  0  0  0
 34 35  1  6  0  0  0
 34 36  1  0  0  0  0
 36 37  1  6  0  0  0
 37 38  1  0  0  0  0
 38 39  2  0  0  0  0
 38 40  1  0  0  0  0
 36 41  1  0  0  0  0
 41 42  1  1  0  0  0
 22 43  1  0  0  0  0
 18 44  1  0  0  0  0
 44 45  1  0  0  0  0
 45 46  2  0  0  0  0
 46 47  1  0  0  0  0
 47 53  1  0  0  0  0
 47 48  1  0  0  0  0
 48 49  1  0  0  0  0
 49 50  1  0  0  0  0
 50 51  1  0  0  0  0
 50 52  1  0  0  0  0
 52 53  1  0  0  0  0
 44 54  2  0  0  0  0
 54 55  1  0  0  0  0
 54 56  1  0  0  0  0
 56 57  1  0  0  0  0
 57 58  1  0  0  0  0
 58 59  2  0  0  0  0
M  END
>  <Name>
Rifampin

>  <CAS #>
13292-46-1

>  <human Clearance (mL/min/kg)>
3.5

>  <Primary mechanism (metabolic, biliary or renal)>
biliary with enterohepatic recirculation.

>  <seqId>
789.0

>  <Code (mechanism and clearance degree index)>
B1

>  < Five M1 and R1 test groups>
33

>  <formamide>
0

>  <prodrug phosphates>
0

>  <VolSurf_V>
1601.12

>  <VolSurf_S>
955.124

>  <VolSurf_R>
1.67635

>  <VolSurf_G>
1.73356

>  <VolSurf_IW1>
0.0364464

>  <VolSurf_IW2>
0.092551

>  <VolSurf_IW3>
0.195724

>  <VolSurf_IW4>
0.28556

>  <VolSurf_ID1>
0.00798288

>  <VolSurf_ID2>
0.0242093

>  <VolSurf_ID3>
0.0534779

>  <VolSurf_ID4>
0.111963

>  <VolSurf_HL1>
5.73885

>  <VolSurf_HL2>
5.75

>  <VolSurf_A>
1.70505

>  <VolSurf_CP>
0.683598

>  <VolSurf_POL>
84.4711

>  <VolSurf_MW>
821.932

>  <VolSurf_FLEX>
0.649212

>  <VolSurf_FLEX_RB>
0.0341691

>  <VolSurf_NCC>
1.0

>  <VolSurf_LOGP n-Oct>
4.571

>  <VolSurf_LOGP c-Hex>
-3.894

>  <VolSurf_PSA>
230.95

>  <VolSurf_HSA>
724.174

>  <VolSurf_PSAR>
0.241801

>  <VolSurf_PHSAR>
0.318915

>  <VolSurf_LgD5>
2.25645

>  <VolSurf_LgD6>
2.24274

>  <VolSurf_LgD7>
2.03539

>  <VolSurf_LgD7.5>
1.69333

>  <VolSurf_LgD8>
1.1439

>  <VolSurf_LgD9>
3.04074E-4

>  <VolSurf_LgD10>
-0.574773

>  <VolSurf_AUS7.4>
0.0

>  <VolSurf_%FU4>
0.0

>  <VolSurf_%FU5>
0.0

>  <VolSurf_%FU6>
0.0

>  <VolSurf_%FU7>
0.0

>  <VolSurf_%FU8>
0.0

>  <VolSurf_%FU9>
0.0

>  <VolSurf_%FU10>
0.0

>  <ID>
376

>  <MOKAID>
377

>  <Clearance Route>
possible billary

>  <PC1>
-0.704226

>  <PC2>
-5.56064

$$$$
Riluzole
  -OEChem-08301611272D

 15 16  0     0  0  0  0  0  0999 V2000
    2.6938    1.3169    0.0000 S   0  0  0  0  0  0  0  0  0  0  0  0
    3.2858    0.5023    0.0000 C   0  0  0  0  0  0  0  0  0  0  0  0
    2.6938   -0.3125    0.0000 N   0  0  0  0  0  0  0  0  0  0  0  0
    1.7360   -0.0012    0.0000 C   0  0  0  0  0  0  0  0  0  0  0  0
    1.7360    1.0058    0.0000 C   0  0  0  0  0  0  0  0  0  0  0  0
    0.8680    1.5138    0.0000 C   0  0  0  0  0  0  0  0  0  0  0  0
    0.0000    1.0058    0.0000 C   0  0  0  0  0  0  0  0  0  0  0  0
    0.0000    0.0000    0.0000 C   0  0  0  0  0  0  0  0  0  0  0  0
    0.8680   -0.4978    0.0000 C   0  0  0  0  0  0  0  0  0  0  0  0
   -0.8675    1.5032    0.0000 O   0  0  0  0  0  0  0  0  0  0  0  0
   -1.7320    1.0007    0.0000 C   0  0  0  0  0  0  0  0  0  0  0  0
   -1.2295    0.1361    0.0000 F   0  0  0  0  0  0  0  0  0  0  0  0
   -2.2346    1.8652    0.0000 F   0  0  0  0  0  0  0  0  0  0  0  0
   -2.5966    0.4981    0.0000 F   0  0  0  0  0  0  0  0  0  0  0  0
    4.2858    0.5024    0.0000 N   0  0  0  0  0  0  0  0  0  0  0  0
  1  5  1  0  0  0  0
  1  2  1  0  0  0  0
  2  3  2  0  0  0  0
  3  4  1  0  0  0  0
  4  9  2  0  0  0  0
  4  5  1  0  0  0  0
  5  6  2  0  0  0  0
  6  7  1  0  0  0  0
  7  8  2  0  0  0  0
  8  9  1  0  0  0  0
  7 10  1  0  0  0  0
 10 11  1  0  0  0  0
 11 12  1  0  0  0  0
 11 13  1  0  0  0  0
 11 14  1  0  0  0  0
  2 15  1  0  0  0  0
M  END
>  <Name>
Riluzole

>  <CAS #>
1744-22-5

>  <human Clearance (mL/min/kg)>
11.3

>  <Primary mechanism (metabolic, biliary or renal)>
metabolic

>  <seqId>
790.0

>  <Code (mechanism and clearance degree index)>
M1

>  < Five M1 and R1 test groups>
M1_5

>  <formamide>
0

>  <prodrug phosphates>
0

>  <VolSurf_V>
419.25

>  <VolSurf_S>
311.816

>  <VolSurf_R>
1.34454

>  <VolSurf_G>
1.23495

>  <VolSurf_IW1>
0.0286546

>  <VolSurf_IW2>
0.0499609

>  <VolSurf_IW3>
0.540212

>  <VolSurf_IW4>
2.32734

>  <VolSurf_ID1>
0.105149

>  <VolSurf_ID2>
0.186616

>  <VolSurf_ID3>
0.218632

>  <VolSurf_ID4>
0.267632

>  <VolSurf_HL1>
2.76842

>  <VolSurf_HL2>
1.15038

>  <VolSurf_A>
0.683285

>  <VolSurf_CP>
0.570806

>  <VolSurf_POL>
18.805

>  <VolSurf_MW>
234.198

>  <VolSurf_FLEX>
0.634469

>  <VolSurf_FLEX_RB>
0.21149

>  <VolSurf_NCC>
0.0

>  <VolSurf_LOGP n-Oct>
3.08

>  <VolSurf_LOGP c-Hex>
2.045

>  <VolSurf_PSA>
66.95

>  <VolSurf_HSA>
244.866

>  <VolSurf_PSAR>
0.21471

>  <VolSurf_PHSAR>
0.273415

>  <VolSurf_LgD5>
3.03541

>  <VolSurf_LgD6>
3.07533

>  <VolSurf_LgD7>
3.07953

>  <VolSurf_LgD7.5>
3.07985

>  <VolSurf_LgD8>
3.07995

>  <VolSurf_LgD9>
3.08

>  <VolSurf_LgD10>
3.08

>  <VolSurf_AUS7.4>
2.0

>  <VolSurf_%FU4>
48.0413

>  <VolSurf_%FU5>
90.2402

>  <VolSurf_%FU6>
98.93

>  <VolSurf_%FU7>
99.892

>  <VolSurf_%FU8>
99.9892

>  <VolSurf_%FU9>
99.9989

>  <VolSurf_%FU10>
99.9999

>  <ID>
377

>  <MOKAID>
378

>  <Clearance Route>
metabolic

>  <PC1>
4.09775

>  <PC2>
3.3872

$$$$
Risedronic acid (Risedronate)
  -OEChem-08301611272D

 17 17  0     0  0  0  0  0  0999 V2000
    0.7313   -1.0023    0.0000 O   0  0  0  0  0  0  0  0  0  0  0  0
    1.7313   -1.0038    0.0000 C   0  0  0  0  0  0  0  0  0  0  0  0
    1.7328   -0.0038    0.0000 C   0  0  0  0  0  0  0  0  0  0  0  0
    0.8675    0.4975    0.0000 C   0  0  0  0  0  0  0  0  0  0  0  0
    0.0000    0.0000    0.0000 C   0  0  0  0  0  0  0  0  0  0  0  0
   -0.8675    0.4975    0.0000 C   0  0  0  0  0  0  0  0  0  0  0  0
   -0.8675    1.5027    0.0000 C   0  0  0  0  0  0  0  0  0  0  0  0
    0.0000    2.0104    0.0000 N   0  0  0  0  0  0  0  0  0  0  0  0
    0.8675    1.5027    0.0000 C   0  0  0  0  0  0  0  0  0  0  0  0
    3.4813   -1.0063    0.0000 P   0  0  0  0  0  0  0  0  0  0  0  0
    4.4813   -1.0077    0.0000 O   0  0  0  0  0  0  0  0  0  0  0  0
    3.4828   -0.0063    0.0000 O   0  0  0  0  0  0  0  0  0  0  0  0
    3.4799   -2.0063    0.0000 O   0  0  0  0  0  0  0  0  0  0  0  0
    1.7288   -2.7538    0.0000 P   0  0  0  0  0  0  0  0  0  0  0  0
    1.7274   -3.7538    0.0000 O   0  0  0  0  0  0  0  0  0  0  0  0
    2.7288   -2.7552    0.0000 O   0  0  0  0  0  0  0  0  0  0  0  0
    0.7288   -2.7523    0.0000 O   0  0  0  0  0  0  0  0  0  0  0  0
  1  2  1  0  0  0  0
  2  3  1  0  0  0  0
  3  4  1  0  0  0  0
  4  9  2  0  0  0  0
  4  5  1  0  0  0  0
  5  6  2  0  0  0  0
  6  7  1  0  0  0  0
  7  8  2  0  0  0  0
  8  9  1  0  0  0  0
  2 10  1  0  0  0  0
 10 11  2  0  0  0  0
 10 12  1  0  0  0  0
 10 13  1  0  0  0  0
  2 14  1  0  0  0  0
 14 15  2  0  0  0  0
 14 16  1  0  0  0  0
 14 17  1  0  0  0  0
M  END
>  <Name>
Risedronic acid (Risedronate)

>  <CAS #>
105462-24-6

>  <human Clearance (mL/min/kg)>
1.5

>  <Primary mechanism (metabolic, biliary or renal)>
renal

>  <seqId>
791.0

>  <Code (mechanism and clearance degree index)>
R1

>  < Five M1 and R1 test groups>
R1_5

>  <formamide>
0

>  <prodrug phosphates>
0

>  <VolSurf_V>
502.25

>  <VolSurf_S>
363.804

>  <VolSurf_R>
1.38055

>  <VolSurf_G>
1.29914

>  <VolSurf_IW1>
0.121282

>  <VolSurf_IW2>
0.213189

>  <VolSurf_IW3>
0.436821

>  <VolSurf_IW4>
0.835589

>  <VolSurf_ID1>
0.174331

>  <VolSurf_ID2>
0.338326

>  <VolSurf_ID3>
0.459578

>  <VolSurf_ID4>
0.560598

>  <VolSurf_HL1>
15.7925

>  <VolSurf_HL2>
13.2656

>  <VolSurf_A>
6.68804

>  <VolSurf_CP>
0.059756

>  <VolSurf_POL>
26.274

>  <VolSurf_MW>
281.096

>  <VolSurf_FLEX>
1.63805

>  <VolSurf_FLEX_RB>
0.234007

>  <VolSurf_NCC>
2.0

>  <VolSurf_LOGP n-Oct>
-2.203

>  <VolSurf_LOGP c-Hex>
-5.807

>  <VolSurf_PSA>
141.6

>  <VolSurf_HSA>
222.204

>  <VolSurf_PSAR>
0.38922

>  <VolSurf_PHSAR>
0.637252

>  <VolSurf_LgD5>
-5.12233

>  <VolSurf_LgD6>
-5.7073

>  <VolSurf_LgD7>
-6.41859

>  <VolSurf_LgD7.5>
-6.9703

>  <VolSurf_LgD8>
-7.5915

>  <VolSurf_LgD9>
-8.4241

>  <VolSurf_LgD10>
-8.60872

>  <VolSurf_AUS7.4>
0.0

>  <VolSurf_%FU4>
0.0

>  <VolSurf_%FU5>
0.0

>  <VolSurf_%FU6>
0.0

>  <VolSurf_%FU7>
0.0

>  <VolSurf_%FU8>
0.0

>  <VolSurf_%FU9>
0.0

>  <VolSurf_%FU10>
0.0

>  <ID>
378

>  <MOKAID>
379

>  <Clearance Route>
renal

>  <PC1>
-6.42045

>  <PC2>
5.5267599999999995

$$$$
Risperidone
  -OEChem-08301611272D

 30 34  0     0  0  0  0  0  0999 V2000
    0.8673   -1.5058    0.0000 C   0  0  0  0  0  0  0  0  0  0  0  0
    0.0013   -1.0057    0.0000 C   0  0  0  0  0  0  0  0  0  0  0  0
    0.0000    0.0000    0.0000 C   0  0  0  0  0  0  0  0  0  0  0  0
    0.8659    0.5002    0.0000 C   0  0  0  0  0  0  0  0  0  0  0  0
    0.8656    1.5002    0.0000 C   0  0  0  0  0  0  0  0  0  0  0  0
    1.7315    2.0005    0.0000 N   0  0  0  0  0  0  0  0  0  0  0  0
    2.6051    1.5033    0.0000 C   0  0  0  0  0  0  0  0  0  0  0  0
    3.4755    2.0061    0.0000 C   0  0  0  0  0  0  0  0  0  0  0  0
    3.4723    3.0061    0.0000 C   0  0  0  0  0  0  0  0  0  0  0  0
    2.6076    3.5084    0.0000 C   0  0  0  0  0  0  0  0  0  0  0  0
    1.7372    3.0056    0.0000 C   0  0  0  0  0  0  0  0  0  0  0  0
    4.3382    3.5064    0.0000 C   0  0  0  0  0  0  0  0  0  0  0  0
    5.2584    3.0970    0.0000 N   0  0  0  0  0  0  0  0  0  0  0  0
    5.9319    3.8456    0.0000 O   0  0  0  0  0  0  0  0  0  0  0  0
    5.4283    4.7177    0.0000 C   0  0  0  0  0  0  0  0  0  0  0  0
    5.7443    5.6724    0.0000 C   0  0  0  0  0  0  0  0  0  0  0  0
    5.0668    6.4156    0.0000 C   0  0  0  0  0  0  0  0  0  0  0  0
    5.3727    7.3677    0.0000 F   0  0  0  0  0  0  0  0  0  0  0  0
    4.0830    6.2062    0.0000 C   0  0  0  0  0  0  0  0  0  0  0  0
    3.7768    5.2536    0.0000 C   0  0  0  0  0  0  0  0  0  0  0  0
    4.4432    4.5080    0.0000 C   0  0  0  0  0  0  0  0  0  0  0  0
   -0.8723    0.5045    0.0000 C   0  0  0  0  0  0  0  0  0  0  0  0
   -0.8750    1.5045    0.0000 O   0  0  0  0  0  0  0  0  0  0  0  0
   -1.7377   -0.0022    0.0000 N   0  0  0  0  0  0  0  0  0  0  0  0
   -2.6056    0.5056    0.0000 C   0  0  0  0  0  0  0  0  0  0  0  0
   -3.4735   -0.0022    0.0000 C   0  0  0  0  0  0  0  0  0  0  0  0
   -3.4735   -1.0079    0.0000 C   0  0  0  0  0  0  0  0  0  0  0  0
   -2.6056   -1.5057    0.0000 C   0  0  0  0  0  0  0  0  0  0  0  0
   -1.7364   -1.0079    0.0000 C   0  0  0  0  0  0  0  0  0  0  0  0
   -0.8697   -1.5068    0.0000 N   0  0  0  0  0  0  0  0  0  0  0  0
  1  2  1  0  0  0  0
  2 30  1  0  0  0  0
  2  3  2  0  0  0  0
  3  4  1  0  0  0  0
  4  5  1  0  0  0  0
  5  6  1  0  0  0  0
  6 11  1  0  0  0  0
  6  7  1  0  0  0  0
  7  8  1  0  0  0  0
  8  9  1  0  0  0  0
  9 10  1  0  0  0  0
 10 11  1  0  0  0  0
  9 12  1  0  0  0  0
 12 21  1  0  0  0  0
 12 13  2  0  0  0  0
 13 14  1  0  0  0  0
 14 15  1  0  0  0  0
 15 21  2  0  0  0  0
 15 16  1  0  0  0  0
 16 17  2  0  0  0  0
 17 18  1  0  0  0  0
 17 19  1  0  0  0  0
 19 20  2  0  0  0  0
 20 21  1  0  0  0  0
  3 22  1  0  0  0  0
 22 23  2  0  0  0  0
 22 24  1  0  0  0  0
 24 29  1  0  0  0  0
 24 25  1  0  0  0  0
 25 26  1  0  0  0  0
 26 27  1  0  0  0  0
 27 28  1  0  0  0  0
 28 29  1  0  0  0  0
 29 30  2  0  0  0  0
M  END
>  <Name>
Risperidone

>  <CAS #>
106266-06-2

>  <human Clearance (mL/min/kg)>
5.4

>  <Primary mechanism (metabolic, biliary or renal)>
metabolic

>  <seqId>
792.0

>  <Code (mechanism and clearance degree index)>
M1

>  < Five M1 and R1 test groups>
M1_2

>  <formamide>
0

>  <prodrug phosphates>
0

>  <VolSurf_V>
893.125

>  <VolSurf_S>
599.136

>  <VolSurf_R>
1.49069

>  <VolSurf_G>
1.54401

>  <VolSurf_IW1>
0.0632825

>  <VolSurf_IW2>
0.158009

>  <VolSurf_IW3>
0.205762

>  <VolSurf_IW4>
0.362566

>  <VolSurf_ID1>
0.0388627

>  <VolSurf_ID2>
0.0546834

>  <VolSurf_ID3>
0.0681976

>  <VolSurf_ID4>
0.160088

>  <VolSurf_HL1>
1.98585

>  <VolSurf_HL2>
1.13167

>  <VolSurf_A>
2.719

>  <VolSurf_CP>
1.48158

>  <VolSurf_POL>
44.938

>  <VolSurf_MW>
411.492

>  <VolSurf_FLEX>
2.38209

>  <VolSurf_FLEX_RB>
0.476418

>  <VolSurf_NCC>
1.0

>  <VolSurf_LOGP n-Oct>
3.09

>  <VolSurf_LOGP c-Hex>
1.413

>  <VolSurf_PSA>
75.29

>  <VolSurf_HSA>
523.846

>  <VolSurf_PSAR>
0.125664

>  <VolSurf_PHSAR>
0.143725

>  <VolSurf_LgD5>
0.397417

>  <VolSurf_LgD6>
1.32325

>  <VolSurf_LgD7>
2.25468

>  <VolSurf_LgD7.5>
2.63508

>  <VolSurf_LgD8>
2.88985

>  <VolSurf_LgD9>
3.06529

>  <VolSurf_LgD10>
3.08746

>  <VolSurf_AUS7.4>
1.48731

>  <VolSurf_%FU4>
0.0152547

>  <VolSurf_%FU5>
0.168432

>  <VolSurf_%FU6>
1.67661

>  <VolSurf_%FU7>
14.5812

>  <VolSurf_%FU8>
63.0616

>  <VolSurf_%FU9>
94.4667

>  <VolSurf_%FU10>
99.4177

>  <ID>
379

>  <MOKAID>
380

>  <Clearance Route>
metabolic

>  <PC1>
2.4922

>  <PC2>
-1.88008

$$$$
Ritanserin
  -OEChem-08301611272D

 34 38  0     0  0  0  0  0  0999 V2000
   -0.8675    1.5032    0.0000 C   0  0  0  0  0  0  0  0  0  0  0  0
    0.0000    1.0058    0.0000 C   0  0  0  0  0  0  0  0  0  0  0  0
    0.0000    0.0000    0.0000 C   0  0  0  0  0  0  0  0  0  0  0  0
   -0.8653   -0.5013    0.0000 C   0  0  0  0  0  0  0  0  0  0  0  0
   -0.8639   -1.5013    0.0000 C   0  0  0  0  0  0  0  0  0  0  0  0
   -1.7292   -2.0025    0.0000 N   0  0  0  0  0  0  0  0  0  0  0  0
   -2.6033   -1.5063    0.0000 C   0  0  0  0  0  0  0  0  0  0  0  0
   -3.4731   -2.0102    0.0000 C   0  0  0  0  0  0  0  0  0  0  0  0
   -3.4688   -3.0102    0.0000 C   0  0  0  0  0  0  0  0  0  0  0  0
   -2.6034   -3.5115    0.0000 C   0  0  0  0  0  0  0  0  0  0  0  0
   -1.7336   -3.0076    0.0000 C   0  0  0  0  0  0  0  0  0  0  0  0
   -4.3341   -3.5115    0.0000 C   0  0  0  0  0  0  0  0  0  0  0  0
   -4.3326   -4.5115    0.0000 C   0  0  0  0  0  0  0  0  0  0  0  0
   -3.4599   -5.0102    0.0000 C   0  0  0  0  0  0  0  0  0  0  0  0
   -3.4584   -6.0103    0.0000 C   0  0  0  0  0  0  0  0  0  0  0  0
   -4.3208   -6.5166    0.0000 C   0  0  0  0  0  0  0  0  0  0  0  0
   -5.1935   -6.0178    0.0000 C   0  0  0  0  0  0  0  0  0  0  0  0
   -5.2039   -5.0127    0.0000 C   0  0  0  0  0  0  0  0  0  0  0  0
   -4.3149   -7.5166    0.0000 F   0  0  0  0  0  0  0  0  0  0  0  0
   -5.2008   -3.0127    0.0000 C   0  0  0  0  0  0  0  0  0  0  0  0
   -6.0691   -3.5191    0.0000 C   0  0  0  0  0  0  0  0  0  0  0  0
   -6.9359   -3.0204    0.0000 C   0  0  0  0  0  0  0  0  0  0  0  0
   -6.9432   -2.0204    0.0000 C   0  0  0  0  0  0  0  0  0  0  0  0
   -6.0749   -1.5140    0.0000 C   0  0  0  0  0  0  0  0  0  0  0  0
   -5.1993   -2.0076    0.0000 C   0  0  0  0  0  0  0  0  0  0  0  0
   -7.8122   -1.5255    0.0000 F   0  0  0  0  0  0  0  0  0  0  0  0
    0.8680   -0.4978    0.0000 C   0  0  0  0  0  0  0  0  0  0  0  0
    1.7360   -0.0012    0.0000 N   0  0  0  0  0  0  0  0  0  0  0  0
    2.6938   -0.3125    0.0000 C   0  0  0  0  0  0  0  0  0  0  0  0
    3.2858    0.5023    0.0000 C   0  0  0  0  0  0  0  0  0  0  0  0
    2.6938    1.3169    0.0000 S   0  0  0  0  0  0  0  0  0  0  0  0
    1.7360    1.0058    0.0000 C   0  0  0  0  0  0  0  0  0  0  0  0
    0.8680    1.5138    0.0000 N   0  0  0  0  0  0  0  0  0  0  0  0
    0.8675   -1.4978    0.0000 O   0  0  0  0  0  0  0  0  0  0  0  0
  1  2  1  0  0  0  0
  2 33  1  0  0  0  0
  2  3  2  0  0  0  0
  3  4  1  0  0  0  0
  4  5  1  0  0  0  0
  5  6  1  0  0  0  0
  6 11  1  0  0  0  0
  6  7  1  0  0  0  0
  7  8  1  0  0  0  0
  8  9  1  0  0  0  0
  9 10  1  0  0  0  0
 10 11  1  0  0  0  0
  9 12  2  0  0  0  0
 12 13  1  0  0  0  0
 13 18  2  0  0  0  0
 13 14  1  0  0  0  0
 14 15  2  0  0  0  0
 15 16  1  0  0  0  0
 16 17  2  0  0  0  0
 17 18  1  0  0  0  0
 16 19  1  0  0  0  0
 12 20  1  0  0  0  0
 20 25  2  0  0  0  0
 20 21  1  0  0  0  0
 21 22  2  0  0  0  0
 22 23  1  0  0  0  0
 23 24  2  0  0  0  0
 24 25  1  0  0  0  0
 23 26  1  0  0  0  0
  3 27  1  0  0  0  0
 27 28  1  0  0  0  0
 28 32  1  0  0  0  0
 28 29  1  0  0  0  0
 29 30  2  0  0  0  0
 30 31  1  0  0  0  0
 31 32  1  0  0  0  0
 32 33  2  0  0  0  0
 27 34  2  0  0  0  0
M  END
>  <Name>
Ritanserin

>  <CAS #>
87051-43-2

>  <human Clearance (mL/min/kg)>
0.51

>  <Primary mechanism (metabolic, biliary or renal)>
metabolic

>  <seqId>
793.0

>  <Code (mechanism and clearance degree index)>
M1

>  < Five M1 and R1 test groups>
M1_3

>  <formamide>
0

>  <prodrug phosphates>
0

>  <VolSurf_V>
996.25

>  <VolSurf_S>
664.515

>  <VolSurf_R>
1.49921

>  <VolSurf_G>
1.61682

>  <VolSurf_IW1>
0.0352382

>  <VolSurf_IW2>
0.0900654

>  <VolSurf_IW3>
0.210098

>  <VolSurf_IW4>
0.871451

>  <VolSurf_ID1>
0.00170669

>  <VolSurf_ID2>
0.00804076

>  <VolSurf_ID3>
0.020032

>  <VolSurf_ID4>
0.0291425

>  <VolSurf_HL1>
1.06942

>  <VolSurf_HL2>
0.524123

>  <VolSurf_A>
1.75294

>  <VolSurf_CP>
16.0152

>  <VolSurf_POL>
52.719

>  <VolSurf_MW>
478.577

>  <VolSurf_FLEX>
2.28328

>  <VolSurf_FLEX_RB>
0.380546

>  <VolSurf_NCC>
1.0

>  <VolSurf_LOGP n-Oct>
5.711

>  <VolSurf_LOGP c-Hex>
3.249

>  <VolSurf_PSA>
66.69

>  <VolSurf_HSA>
597.825

>  <VolSurf_PSAR>
0.100359

>  <VolSurf_PHSAR>
0.111554

>  <VolSurf_LgD5>
2.70948

>  <VolSurf_LgD6>
3.54212

>  <VolSurf_LgD7>
4.49716

>  <VolSurf_LgD7.5>
4.94193

>  <VolSurf_LgD8>
5.30554

>  <VolSurf_LgD9>
5.64863

>  <VolSurf_LgD10>
5.70434

>  <VolSurf_AUS7.4>
1.16685

>  <VolSurf_%FU4>
0.00646994

>  <VolSurf_%FU5>
0.0646791

>  <VolSurf_%FU6>
0.643065

>  <VolSurf_%FU7>
6.07885

>  <VolSurf_%FU8>
39.292

>  <VolSurf_%FU9>
86.6172

>  <VolSurf_%FU10>
98.4785

>  <ID>
380

>  <MOKAID>
381

>  <Clearance Route>
metabolic

>  <PC1>
4.7847800000000005

>  <PC2>
-3.6323300000000005

$$$$
Ritodrine
  -OEChem-08301611272D

 21 22  0     1  0  0  0  0  0999 V2000
    4.3286    0.4925    0.0000 C   0  0  0  0  0  0  0  0  0  0  0  0
    4.3316    1.4925    0.0000 C   0  0  1  0  0  0  0  0  0  0  0  0
    3.4670    1.9950    0.0000 N   0  0  0  0  0  0  0  0  0  0  0  0
    2.5995    1.4976    0.0000 C   0  0  0  0  0  0  0  0  0  0  0  0
    1.7350    2.0001    0.0000 C   0  0  0  0  0  0  0  0  0  0  0  0
    0.8675    1.5027    0.0000 C   0  0  0  0  0  0  0  0  0  0  0  0
    0.8675    0.4975    0.0000 C   0  0  0  0  0  0  0  0  0  0  0  0
    0.0000    0.0000    0.0000 C   0  0  0  0  0  0  0  0  0  0  0  0
   -0.8675    0.4975    0.0000 C   0  0  0  0  0  0  0  0  0  0  0  0
   -1.7328   -0.0038    0.0000 O   0  0  0  0  0  0  0  0  0  0  0  0
   -0.8675    1.5027    0.0000 C   0  0  0  0  0  0  0  0  0  0  0  0
    0.0000    2.0104    0.0000 C   0  0  0  0  0  0  0  0  0  0  0  0
    5.1991    1.9899    0.0000 C   0  0  1  0  0  0  0  0  0  0  0  0
    5.2020    2.9899    0.0000 O   0  0  0  0  0  0  0  0  0  0  0  0
    6.0636    1.4874    0.0000 C   0  0  0  0  0  0  0  0  0  0  0  0
    6.9342    1.9900    0.0000 C   0  0  0  0  0  0  0  0  0  0  0  0
    7.7988    1.4874    0.0000 C   0  0  0  0  0  0  0  0  0  0  0  0
    7.8017    0.4874    0.0000 C   0  0  0  0  0  0  0  0  0  0  0  0
    8.6684   -0.0113    0.0000 O   0  0  0  0  0  0  0  0  0  0  0  0
    6.9311   -0.0152    0.0000 C   0  0  0  0  0  0  0  0  0  0  0  0
    6.0577    0.4822    0.0000 C   0  0  0  0  0  0  0  0  0  0  0  0
  2  1  1  1  0  0  0
  2  3  1  0  0  0  0
  3  4  1  0  0  0  0
  4  5  1  0  0  0  0
  5  6  1  0  0  0  0
  6 12  2  0  0  0  0
  6  7  1  0  0  0  0
  7  8  2  0  0  0  0
  8  9  1  0  0  0  0
  9 10  1  0  0  0  0
  9 11  2  0  0  0  0
 11 12  1  0  0  0  0
  2 13  1  0  0  0  0
 13 14  1  1  0  0  0
 13 15  1  0  0  0  0
 15 21  2  0  0  0  0
 15 16  1  0  0  0  0
 16 17  2  0  0  0  0
 17 18  1  0  0  0  0
 18 19  1  0  0  0  0
 18 20  2  0  0  0  0
 20 21  1  0  0  0  0
M  END
>  <Name>
Ritodrine

>  <CAS #>
26652-09-5

>  <human Clearance (mL/min/kg)>
31.0

>  <Primary mechanism (metabolic, biliary or renal)>
metabolic

>  <seqId>
795.0

>  <Code (mechanism and clearance degree index)>
M1

>  < Five M1 and R1 test groups>
M1_2

>  <formamide>
0

>  <prodrug phosphates>
0

>  <VolSurf_V>
687.125

>  <VolSurf_S>
479.426

>  <VolSurf_R>
1.43322

>  <VolSurf_G>
1.43655

>  <VolSurf_IW1>
0.0324924

>  <VolSurf_IW2>
0.116665

>  <VolSurf_IW3>
0.31366

>  <VolSurf_IW4>
0.739899

>  <VolSurf_ID1>
0.0322579

>  <VolSurf_ID2>
0.0738672

>  <VolSurf_ID3>
0.132565

>  <VolSurf_ID4>
0.191293

>  <VolSurf_HL1>
1.78

>  <VolSurf_HL2>
1.60773

>  <VolSurf_A>
3.07003

>  <VolSurf_CP>
1.19717

>  <VolSurf_POL>
35.454

>  <VolSurf_MW>
288.361

>  <VolSurf_FLEX>
2.532

>  <VolSurf_FLEX_RB>
0.2532

>  <VolSurf_NCC>
1.0

>  <VolSurf_LOGP n-Oct>
1.914

>  <VolSurf_LOGP c-Hex>
-2.705

>  <VolSurf_PSA>
84.27

>  <VolSurf_HSA>
395.156

>  <VolSurf_PSAR>
0.175772

>  <VolSurf_PHSAR>
0.213257

>  <VolSurf_LgD5>
-1.40171

>  <VolSurf_LgD6>
-0.875327

>  <VolSurf_LgD7>
0.0243209

>  <VolSurf_LgD7.5>
0.504487

>  <VolSurf_LgD8>
0.966749

>  <VolSurf_LgD9>
1.6451

>  <VolSurf_LgD10>
1.64334

>  <VolSurf_AUS7.4>
0.578772

>  <VolSurf_%FU4>
0.00126992

>  <VolSurf_%FU5>
0.0126977

>  <VolSurf_%FU6>
0.126832

>  <VolSurf_%FU7>
1.254

>  <VolSurf_%FU8>
11.2594

>  <VolSurf_%FU9>
53.8051

>  <VolSurf_%FU10>
53.4308

>  <ID>
381

>  <MOKAID>
382

>  <Clearance Route>
possible billary

>  <PC1>
0.36083899999999997

>  <PC2>
-0.26578

$$$$
Rivastigmine
  -OEChem-08301611272D

 18 18  0     1  0  0  0  0  0999 V2000
   -5.1991    1.9899    0.0000 C   0  0  0  0  0  0  0  0  0  0  0  0
   -4.3316    1.4925    0.0000 C   0  0  0  0  0  0  0  0  0  0  0  0
   -3.4670    1.9950    0.0000 N   0  0  0  0  0  0  0  0  0  0  0  0
   -3.4700    2.9950    0.0000 C   0  0  0  0  0  0  0  0  0  0  0  0
   -2.5995    1.4976    0.0000 C   0  0  0  0  0  0  0  0  0  0  0  0
   -2.5966    0.4976    0.0000 O   0  0  0  0  0  0  0  0  0  0  0  0
   -1.7350    2.0001    0.0000 O   0  0  0  0  0  0  0  0  0  0  0  0
   -0.8675    1.5027    0.0000 C   0  0  0  0  0  0  0  0  0  0  0  0
   -0.8675    0.4975    0.0000 C   0  0  0  0  0  0  0  0  0  0  0  0
    0.0000    0.0000    0.0000 C   0  0  0  0  0  0  0  0  0  0  0  0
    0.8675    0.4975    0.0000 C   0  0  0  0  0  0  0  0  0  0  0  0
    0.8675    1.5027    0.0000 C   0  0  0  0  0  0  0  0  0  0  0  0
   -0.0000    2.0104    0.0000 C   0  0  0  0  0  0  0  0  0  0  0  0
    1.7350    2.0001    0.0000 C   0  0  2  0  0  0  0  0  0  0  0  0
    2.5995    1.4976    0.0000 C   0  0  0  0  0  0  0  0  0  0  0  0
    1.7379    3.0001    0.0000 N   0  0  0  0  0  0  0  0  0  0  0  0
    0.8734    3.5027    0.0000 C   0  0  0  0  0  0  0  0  0  0  0  0
    2.6054    3.4976    0.0000 C   0  0  0  0  0  0  0  0  0  0  0  0
  1  2  1  0  0  0  0
  2  3  1  0  0  0  0
  3  4  1  0  0  0  0
  3  5  1  0  0  0  0
  5  6  2  0  0  0  0
  5  7  1  0  0  0  0
  7  8  1  0  0  0  0
  8 13  2  0  0  0  0
  8  9  1  0  0  0  0
  9 10  2  0  0  0  0
 10 11  1  0  0  0  0
 11 12  2  0  0  0  0
 12 13  1  0  0  0  0
 12 14  1  0  0  0  0
 14 15  1  1  0  0  0
 14 16  1  0  0  0  0
 16 17  1  0  0  0  0
 16 18  1  0  0  0  0
M  END
>  <Name>
Rivastigmine

>  <CAS #>
123441-03-2

>  <human Clearance (mL/min/kg)>
12.0

>  <Primary mechanism (metabolic, biliary or renal)>
metabolic

>  <seqId>
797.0

>  <Code (mechanism and clearance degree index)>
M1

>  < Five M1 and R1 test groups>
M1_3

>  <formamide>
0

>  <prodrug phosphates>
0

>  <VolSurf_V>
652.0

>  <VolSurf_S>
452.458

>  <VolSurf_R>
1.44102

>  <VolSurf_G>
1.38801

>  <VolSurf_IW1>
0.0358751

>  <VolSurf_IW2>
0.157023

>  <VolSurf_IW3>
0.632321

>  <VolSurf_IW4>
1.13753

>  <VolSurf_ID1>
0.0163223

>  <VolSurf_ID2>
0.0816014

>  <VolSurf_ID3>
0.153394

>  <VolSurf_ID4>
0.398272

>  <VolSurf_HL1>
1.95625

>  <VolSurf_HL2>
2.70909

>  <VolSurf_A>
3.77204

>  <VolSurf_CP>
0.74233

>  <VolSurf_POL>
30.297

>  <VolSurf_MW>
251.344

>  <VolSurf_FLEX>
1.76668

>  <VolSurf_FLEX_RB>
0.160607

>  <VolSurf_NCC>
1.0

>  <VolSurf_LOGP n-Oct>
2.813

>  <VolSurf_LOGP c-Hex>
1.452

>  <VolSurf_PSA>
40.72

>  <VolSurf_HSA>
411.738

>  <VolSurf_PSAR>
0.0899973

>  <VolSurf_PHSAR>
0.0988978

>  <VolSurf_LgD5>
-0.234186

>  <VolSurf_LgD6>
0.597915

>  <VolSurf_LgD7>
1.55524

>  <VolSurf_LgD7.5>
2.00488

>  <VolSurf_LgD8>
2.37864

>  <VolSurf_LgD9>
2.74409

>  <VolSurf_LgD10>
2.8056

>  <VolSurf_AUS7.4>
1.12846

>  <VolSurf_%FU4>
0.00581303

>  <VolSurf_%FU5>
0.0580999

>  <VolSurf_%FU6>
0.577977

>  <VolSurf_%FU7>
5.49399

>  <VolSurf_%FU8>
36.7624

>  <VolSurf_%FU9>
85.323

>  <VolSurf_%FU10>
98.3089

>  <ID>
382

>  <MOKAID>
383

>  <Clearance Route>
metabolic

>  <PC1>
2.44634

>  <PC2>
0.33919

$$$$
Rizatriptan
  -OEChem-08301611272D

 20 22  0     0  0  0  0  0  0999 V2000
    5.2680   -2.6306    0.0000 C   0  0  0  0  0  0  0  0  0  0  0  0
    4.2899   -2.4226    0.0000 N   0  0  0  0  0  0  0  0  0  0  0  0
    3.6207   -3.1657    0.0000 C   0  0  0  0  0  0  0  0  0  0  0  0
    3.9809   -1.4715    0.0000 C   0  0  0  0  0  0  0  0  0  0  0  0
    3.0028   -1.2636    0.0000 C   0  0  0  0  0  0  0  0  0  0  0  0
    2.6938   -0.3125    0.0000 C   0  0  0  0  0  0  0  0  0  0  0  0
    3.2858    0.5023    0.0000 C   0  0  0  0  0  0  0  0  0  0  0  0
    2.6938    1.3169    0.0000 N   0  0  0  0  0  0  0  0  0  0  0  0
    1.7360    1.0058    0.0000 C   0  0  0  0  0  0  0  0  0  0  0  0
    0.8680    1.5138    0.0000 C   0  0  0  0  0  0  0  0  0  0  0  0
    0.0000    1.0058    0.0000 C   0  0  0  0  0  0  0  0  0  0  0  0
    0.0000    0.0000    0.0000 C   0  0  0  0  0  0  0  0  0  0  0  0
   -0.8653   -0.5013    0.0000 C   0  0  0  0  0  0  0  0  0  0  0  0
   -0.8639   -1.5013    0.0000 N   0  0  0  0  0  0  0  0  0  0  0  0
   -1.6712   -2.0920    0.0000 C   0  0  0  0  0  0  0  0  0  0  0  0
   -1.3648   -3.0438    0.0000 N   0  0  0  0  0  0  0  0  0  0  0  0
   -0.3633   -3.0439    0.0000 C   0  0  0  0  0  0  0  0  0  0  0  0
   -0.0514   -2.0921    0.0000 N   0  0  0  0  0  0  0  0  0  0  0  0
    0.8680   -0.4978    0.0000 C   0  0  0  0  0  0  0  0  0  0  0  0
    1.7360   -0.0012    0.0000 C   0  0  0  0  0  0  0  0  0  0  0  0
  1  2  1  0  0  0  0
  2  3  1  0  0  0  0
  2  4  1  0  0  0  0
  4  5  1  0  0  0  0
  5  6  1  0  0  0  0
  6 20  1  0  0  0  0
  6  7  2  0  0  0  0
  7  8  1  0  0  0  0
  8  9  1  0  0  0  0
  9 20  2  0  0  0  0
  9 10  1  0  0  0  0
 10 11  2  0  0  0  0
 11 12  1  0  0  0  0
 12 13  1  0  0  0  0
 13 14  1  0  0  0  0
 14 18  1  0  0  0  0
 14 15  1  0  0  0  0
 15 16  2  0  0  0  0
 16 17  1  0  0  0  0
 17 18  2  0  0  0  0
 12 19  2  0  0  0  0
 19 20  1  0  0  0  0
M  END
>  <Name>
Rizatriptan

>  <CAS #>
144034-80-0

>  <human Clearance (mL/min/kg)>
16.0

>  <Primary mechanism (metabolic, biliary or renal)>
metabolic

>  <seqId>
798.0

>  <Code (mechanism and clearance degree index)>
M1

>  < Five M1 and R1 test groups>
M1_1

>  <formamide>
0

>  <prodrug phosphates>
0

>  <VolSurf_V>
665.625

>  <VolSurf_S>
461.391

>  <VolSurf_R>
1.44265

>  <VolSurf_G>
1.40006

>  <VolSurf_IW1>
0.0876969

>  <VolSurf_IW2>
0.314019

>  <VolSurf_IW3>
0.812712

>  <VolSurf_IW4>
1.36353

>  <VolSurf_ID1>
0.0203899

>  <VolSurf_ID2>
0.0549782

>  <VolSurf_ID3>
0.0834648

>  <VolSurf_ID4>
0.116881

>  <VolSurf_HL1>
0.796733

>  <VolSurf_HL2>
0.54755

>  <VolSurf_A>
3.81974

>  <VolSurf_CP>
3.76963

>  <VolSurf_POL>
33.305

>  <VolSurf_MW>
270.353

>  <VolSurf_FLEX>
1.43995

>  <VolSurf_FLEX_RB>
0.205707

>  <VolSurf_NCC>
1.0

>  <VolSurf_LOGP n-Oct>
1.625

>  <VolSurf_LOGP c-Hex>
-1.713

>  <VolSurf_PSA>
51.71

>  <VolSurf_HSA>
409.681

>  <VolSurf_PSAR>
0.112074

>  <VolSurf_PHSAR>
0.12622

>  <VolSurf_LgD5>
-1.89332

>  <VolSurf_LgD6>
-0.964808

>  <VolSurf_LgD7>
0.0171902

>  <VolSurf_LgD7.5>
0.494027

>  <VolSurf_LgD8>
0.929433

>  <VolSurf_LgD9>
1.48006

>  <VolSurf_LgD10>
1.60813

>  <VolSurf_AUS7.4>
0.823474

>  <VolSurf_%FU4>
0.0014025

>  <VolSurf_%FU5>
0.0233649

>  <VolSurf_%FU6>
0.249762

>  <VolSurf_%FU7>
2.45984

>  <VolSurf_%FU8>
20.1513

>  <VolSurf_%FU9>
71.6221

>  <VolSurf_%FU10>
96.1888

>  <ID>
383

>  <MOKAID>
384

>  <Clearance Route>
metabolic

>  <PC1>
0.890689

>  <PC2>
0.210263

$$$$
Rofecoxib
  -OEChem-08301611272D

 22 24  0     0  0  0  0  0  0999 V2000
    1.7707   -2.4281    0.0000 C   0  0  0  0  0  0  0  0  0  0  0  0
    2.1732   -1.5126    0.0000 C   0  0  0  0  0  0  0  0  0  0  0  0
    1.5863   -0.7029    0.0000 C   0  0  0  0  0  0  0  0  0  0  0  0
    0.5868   -0.8097    0.0000 C   0  0  0  0  0  0  0  0  0  0  0  0
    0.1742   -1.7263    0.0000 C   0  0  0  0  0  0  0  0  0  0  0  0
    0.7712   -2.5349    0.0000 C   0  0  0  0  0  0  0  0  0  0  0  0
    0.0000    0.0000    0.0000 C   0  0  0  0  0  0  0  0  0  0  0  0
    0.3118    0.9519    0.0000 C   0  0  0  0  0  0  0  0  0  0  0  0
    1.2633    1.2596    0.0000 O   0  0  0  0  0  0  0  0  0  0  0  0
   -0.5007    1.5428    0.0000 O   0  0  0  0  0  0  0  0  0  0  0  0
   -1.3080    0.9519    0.0000 C   0  0  0  0  0  0  0  0  0  0  0  0
   -1.0015    0.0000    0.0000 C   0  0  0  0  0  0  0  0  0  0  0  0
   -1.5904   -0.8082    0.0000 C   0  0  0  0  0  0  0  0  0  0  0  0
   -1.1800   -1.7259    0.0000 C   0  0  0  0  0  0  0  0  0  0  0  0
   -1.7689   -2.5342    0.0000 C   0  0  0  0  0  0  0  0  0  0  0  0
   -2.7639   -2.4341    0.0000 C   0  0  0  0  0  0  0  0  0  0  0  0
   -3.1742   -1.5165    0.0000 C   0  0  0  0  0  0  0  0  0  0  0  0
   -2.5895   -0.6989    0.0000 C   0  0  0  0  0  0  0  0  0  0  0  0
   -3.3492   -3.2449    0.0000 S   0  0  0  0  0  0  0  0  0  0  0  0
   -2.5383   -3.8302    0.0000 O   0  0  0  0  0  0  0  0  0  0  0  0
   -4.1600   -2.6597    0.0000 O   0  0  0  0  0  0  0  0  0  0  0  0
   -3.9345   -4.0558    0.0000 C   0  0  0  0  0  0  0  0  0  0  0  0
  1  6  2  0  0  0  0
  1  2  1  0  0  0  0
  2  3  2  0  0  0  0
  3  4  1  0  0  0  0
  4  5  2  0  0  0  0
  5  6  1  0  0  0  0
  4  7  1  0  0  0  0
  7 12  2  0  0  0  0
  7  8  1  0  0  0  0
  8  9  2  0  0  0  0
  8 10  1  0  0  0  0
 10 11  1  0  0  0  0
 11 12  1  0  0  0  0
 12 13  1  0  0  0  0
 13 18  2  0  0  0  0
 13 14  1  0  0  0  0
 14 15  2  0  0  0  0
 15 16  1  0  0  0  0
 16 17  2  0  0  0  0
 17 18  1  0  0  0  0
 16 19  1  0  0  0  0
 19 20  2  0  0  0  0
 19 21  2  0  0  0  0
 19 22  1  0  0  0  0
M  END
>  <Name>
Rofecoxib

>  <CAS #>
162011-90-7

>  <human Clearance (mL/min/kg)>
2.0

>  <Primary mechanism (metabolic, biliary or renal)>
metabolic

>  <seqId>
802.0

>  <Code (mechanism and clearance degree index)>
M1

>  < Five M1 and R1 test groups>
M1_3

>  <formamide>
0

>  <prodrug phosphates>
0

>  <VolSurf_V>
672.5

>  <VolSurf_S>
462.401

>  <VolSurf_R>
1.45436

>  <VolSurf_G>
1.39031

>  <VolSurf_IW1>
0.020859

>  <VolSurf_IW2>
0.0576254

>  <VolSurf_IW3>
0.394627

>  <VolSurf_IW4>
1.94612

>  <VolSurf_ID1>
0.0427718

>  <VolSurf_ID2>
0.0606986

>  <VolSurf_ID3>
0.0849598

>  <VolSurf_ID4>
0.0693817

>  <VolSurf_HL1>
1.11833

>  <VolSurf_HL2>
0.518939

>  <VolSurf_A>
1.40039

>  <VolSurf_CP>
2.51981

>  <VolSurf_POL>
33.3

>  <VolSurf_MW>
314.356

>  <VolSurf_FLEX>
0.760088

>  <VolSurf_FLEX_RB>
0.190022

>  <VolSurf_NCC>
0.0

>  <VolSurf_LOGP n-Oct>
-0.294

>  <VolSurf_LOGP c-Hex>
0.3

>  <VolSurf_PSA>
68.4625

>  <VolSurf_HSA>
393.939

>  <VolSurf_PSAR>
0.148059

>  <VolSurf_PHSAR>
0.17379

>  <VolSurf_LgD5>
-0.294

>  <VolSurf_LgD6>
-0.294

>  <VolSurf_LgD7>
-0.294

>  <VolSurf_LgD7.5>
-0.294

>  <VolSurf_LgD8>
-0.294

>  <VolSurf_LgD9>
-0.294

>  <VolSurf_LgD10>
-0.294

>  <VolSurf_AUS7.4>
2.0

>  <VolSurf_%FU4>
100.0

>  <VolSurf_%FU5>
100.0

>  <VolSurf_%FU6>
100.0

>  <VolSurf_%FU7>
100.0

>  <VolSurf_%FU8>
100.0

>  <VolSurf_%FU9>
100.0

>  <VolSurf_%FU10>
100.0

>  <ID>
384

>  <MOKAID>
385

>  <Clearance Route>
metabolic

>  <PC1>
2.39416

>  <PC2>
1.1197700000000002

$$$$
Roflumilast
  -OEChem-08301611272D

 26 28  0     0  0  0  0  0  0999 V2000
    0.8660   -1.5000    0.0000 C   0  0  0  0  0  0  0  0  0  0  0  0
    1.7321   -1.0000    0.0000 O   0  0  0  0  0  0  0  0  0  0  0  0
    0.8660   -2.5000    0.0000 C   0  0  0  0  0  0  0  0  0  0  0  0
   -0.0060   -3.0000    0.0000 C   0  0  0  0  0  0  0  0  0  0  0  0
   -0.0060   -4.0001    0.0000 C   0  0  0  0  0  0  0  0  0  0  0  0
    0.8571   -4.5051    0.0000 C   0  0  0  0  0  0  0  0  0  0  0  0
    1.7291   -4.0051    0.0000 C   0  0  0  0  0  0  0  0  0  0  0  0
    1.7380   -3.0000    0.0000 C   0  0  0  0  0  0  0  0  0  0  0  0
    2.5921   -4.5102    0.0000 O   0  0  0  0  0  0  0  0  0  0  0  0
    3.4611   -4.0153    0.0000 C   0  0  0  0  0  0  0  0  0  0  0  0
    4.3242   -4.5204    0.0000 C   0  0  0  0  0  0  0  0  0  0  0  0
    4.8209   -5.3905    0.0000 C   0  0  0  0  0  0  0  0  0  0  0  0
    5.3260   -4.5274    0.0000 C   0  0  0  0  0  0  0  0  0  0  0  0
    0.8527   -5.5051    0.0000 O   0  0  0  0  0  0  0  0  0  0  0  0
    1.7165   -6.0089    0.0000 C   0  0  0  0  0  0  0  0  0  0  0  0
    2.5847   -5.5127    0.0000 F   0  0  0  0  0  0  0  0  0  0  0  0
    1.7121   -7.0089    0.0000 F   0  0  0  0  0  0  0  0  0  0  0  0
   -0.0000   -1.0000    0.0000 N   0  0  0  0  0  0  0  0  0  0  0  0
    0.0000    0.0000    0.0000 C   0  0  0  0  0  0  0  0  0  0  0  0
   -0.8675    0.4975    0.0000 C   0  0  0  0  0  0  0  0  0  0  0  0
   -0.8675    1.5027    0.0000 C   0  0  0  0  0  0  0  0  0  0  0  0
    0.0000    2.0104    0.0000 N   0  0  0  0  0  0  0  0  0  0  0  0
    0.8675    1.5027    0.0000 C   0  0  0  0  0  0  0  0  0  0  0  0
    0.8675    0.4975    0.0000 C   0  0  0  0  0  0  0  0  0  0  0  0
    1.7328   -0.0038    0.0000 Cl  0  0  0  0  0  0  0  0  0  0  0  0
   -1.7328   -0.0038    0.0000 Cl  0  0  0  0  0  0  0  0  0  0  0  0
  1  2  2  0  0  0  0
  1  3  1  0  0  0  0
  3  8  2  0  0  0  0
  3  4  1  0  0  0  0
  4  5  2  0  0  0  0
  5  6  1  0  0  0  0
  6  7  2  0  0  0  0
  7  8  1  0  0  0  0
  7  9  1  0  0  0  0
  9 10  1  0  0  0  0
 10 11  1  0  0  0  0
 11 13  1  0  0  0  0
 11 12  1  0  0  0  0
 12 13  1  0  0  0  0
  6 14  1  0  0  0  0
 14 15  1  0  0  0  0
 15 16  1  0  0  0  0
 15 17  1  0  0  0  0
  1 18  1  0  0  0  0
 18 19  1  0  0  0  0
 19 24  2  0  0  0  0
 19 20  1  0  0  0  0
 20 21  2  0  0  0  0
 21 22  1  0  0  0  0
 22 23  2  0  0  0  0
 23 24  1  0  0  0  0
 24 25  1  0  0  0  0
 20 26  1  0  0  0  0
M  END
>  <Name>
Roflumilast

>  <CAS #>
162401-32-3

>  <human Clearance (mL/min/kg)>
2.2

>  <Primary mechanism (metabolic, biliary or renal)>
metabolic

>  <seqId>
803.0

>  <Code (mechanism and clearance degree index)>
M1

>  < Five M1 and R1 test groups>
M1_2

>  <formamide>
0

>  <prodrug phosphates>
0

>  <VolSurf_V>
791.75

>  <VolSurf_S>
544.188

>  <VolSurf_R>
1.45492

>  <VolSurf_G>
1.50768

>  <VolSurf_IW1>
0.0325024

>  <VolSurf_IW2>
0.0606068

>  <VolSurf_IW3>
0.44992

>  <VolSurf_IW4>
1.09829

>  <VolSurf_ID1>
0.0305105

>  <VolSurf_ID2>
0.0907934

>  <VolSurf_ID3>
0.119981

>  <VolSurf_ID4>
0.12984

>  <VolSurf_HL1>
1.08865

>  <VolSurf_HL2>
0.721003

>  <VolSurf_A>
1.23169

>  <VolSurf_CP>
1.47911

>  <VolSurf_POL>
35.841

>  <VolSurf_MW>
403.207

>  <VolSurf_FLEX>
1.32854

>  <VolSurf_FLEX_RB>
0.189792

>  <VolSurf_NCC>
0.0

>  <VolSurf_LOGP n-Oct>
3.477

>  <VolSurf_LOGP c-Hex>
2.446

>  <VolSurf_PSA>
67.99

>  <VolSurf_HSA>
476.198

>  <VolSurf_PSAR>
0.124939

>  <VolSurf_PHSAR>
0.142777

>  <VolSurf_LgD5>
3.47514

>  <VolSurf_LgD6>
3.4768

>  <VolSurf_LgD7>
3.47688

>  <VolSurf_LgD7.5>
3.47667

>  <VolSurf_LgD8>
3.47598

>  <VolSurf_LgD9>
3.46691

>  <VolSurf_LgD10>
3.38532

>  <VolSurf_AUS7.4>
2.0

>  <VolSurf_%FU4>
95.884

>  <VolSurf_%FU5>
99.5723

>  <VolSurf_%FU6>
99.9547

>  <VolSurf_%FU7>
99.9722

>  <VolSurf_%FU8>
99.765

>  <VolSurf_%FU9>
97.7028

>  <VolSurf_%FU10>
80.9638

>  <ID>
385

>  <MOKAID>
386

>  <Clearance Route>
metabolic

>  <PC1>
4.5553300000000005

>  <PC2>
-0.621545

$$$$
Romidepsin
  -OEChem-08301611272D

 38 39  0     1  0  0  0  0  0999 V2000
    2.5982    1.5000    0.0000 C   0  0  0  0  0  0  0  0  0  0  0  0
    1.7322    1.0000    0.0000 C   0  0  0  0  0  0  0  0  0  0  0  0
    1.7322    0.0000    0.0000 C   0  0  0  0  0  0  0  0  0  0  0  0
    2.5984   -0.5000    0.0000 N   0  0  0  0  0  0  0  0  0  0  0  0
    3.3125   -1.8083    0.0000 C   0  0  0  0  0  0  0  0  0  0  0  0
    4.3111   -1.7562    0.0000 O   0  0  0  0  0  0  0  0  0  0  0  0
    2.7044   -3.2650    0.0000 C   0  0  1  0  0  0  0  0  0  0  0  0
    3.5217   -4.2127    0.0000 C   0  0  0  0  0  0  0  0  0  0  0  0
    2.9466   -5.4149    0.0000 S   0  0  0  0  0  0  0  0  0  0  0  0
    4.0219   -7.2414    0.0000 S   0  0  0  0  0  0  0  0  0  0  0  0
   -1.7576   -7.2269    0.0000 C   0  0  0  0  0  0  0  0  0  0  0  0
   -2.5416   -5.7808    0.0000 C   0  0  0  0  0  0  0  0  0  0  0  0
   -2.8639   -4.4761    0.0000 C   0  0  0  0  0  0  0  0  0  0  0  0
   -2.6040   -3.5070    0.0000 C   0  0  0  0  0  0  0  0  0  0  0  0
   -1.7352   -3.0052    0.0000 C   0  0  2  0  0  0  0  0  0  0  0  0
   -0.8661   -3.5070    0.0000 C   0  0  0  0  0  0  0  0  0  0  0  0
   -0.8661   -4.5103    0.0000 C   0  0  0  0  0  0  0  0  0  0  0  0
   -1.7322   -5.0102    0.0000 O   0  0  0  0  0  0  0  0  0  0  0  0
   -0.0000   -5.0105    0.0000 N   0  0  0  0  0  0  0  0  0  0  0  0
    0.8660   -4.5103    0.0000 C   0  0  2  0  0  0  0  0  0  0  0  0
    1.7321   -5.0102    0.0000 C   0  0  0  0  0  0  0  0  0  0  0  0
    2.5981   -4.5101    0.0000 C   0  0  0  0  0  0  0  0  0  0  0  0
    1.7322   -6.0102    0.0000 C   0  0  0  0  0  0  0  0  0  0  0  0
    0.8660   -3.5070    0.0000 C   0  0  0  0  0  0  0  0  0  0  0  0
   -0.0000   -3.0070    0.0000 O   0  0  0  0  0  0  0  0  0  0  0  0
    1.7351   -3.0052    0.0000 N   0  0  0  0  0  0  0  0  0  0  0  0
   -1.7352   -2.0051    0.0000 O   0  0  0  0  0  0  0  0  0  0  0  0
   -0.8690   -1.5051    0.0000 C   0  0  0  0  0  0  0  0  0  0  0  0
   -0.0030   -2.0051    0.0000 O   0  0  0  0  0  0  0  0  0  0  0  0
   -0.8690   -0.5016    0.0000 C   0  0  1  0  0  0  0  0  0  0  0  0
    0.0000   -0.0000    0.0000 N   0  0  0  0  0  0  0  0  0  0  0  0
    0.8660   -0.5000    0.0000 C   0  0  0  0  0  0  0  0  0  0  0  0
    0.8659   -1.5000    0.0000 O   0  0  0  0  0  0  0  0  0  0  0  0
   -1.7350   -0.0016    0.0000 C   0  0  0  0  0  0  0  0  0  0  0  0
   -2.6011   -0.5015    0.0000 C   0  0  0  0  0  0  0  0  0  0  0  0
   -1.7349    0.9984    0.0000 C   0  0  0  0  0  0  0  0  0  0  0  0
    2.1728   -4.1120    0.0000 H   0  0  0  0  0  0  0  0  0  0  0  0
   -2.6013   -2.5053    0.0000 H   0  0  0  0  0  0  0  0  0  0  0  0
  1  2  1  0  0  0  0
  2  3  2  0  0  0  0
  3 32  1  0  0  0  0
  3  4  1  0  0  0  0
  4  5  1  0  0  0  0
  5  6  2  0  0  0  0
  5  7  1  0  0  0  0
  7 26  1  0  0  0  0
  7  8  1  0  0  0  0
  8  9  1  0  0  0  0
  9 10  1  0  0  0  0
 10 11  1  0  0  0  0
 11 12  1  0  0  0  0
 12 13  1  0  0  0  0
 13 14  2  0  0  0  0
 14 15  1  0  0  0  0
 15 16  1  0  0  0  0
 16 17  1  0  0  0  0
 17 18  2  0  0  0  0
 17 19  1  0  0  0  0
 19 20  1  0  0  0  0
 20 21  1  1  0  0  0
 21 22  1  0  0  0  0
 21 23  1  0  0  0  0
 20 24  1  0  0  0  0
 24 25  2  0  0  0  0
 24 26  1  0  0  0  0
 15 27  1  0  0  0  0
 27 28  1  0  0  0  0
 28 29  2  0  0  0  0
 28 30  1  0  0  0  0
 30 31  1  0  0  0  0
 31 32  1  0  0  0  0
 32 33  2  0  0  0  0
 30 34  1  6  0  0  0
 34 35  1  0  0  0  0
 34 36  1  0  0  0  0
  7 37  1  6  0  0  0
 15 38  1  6  0  0  0
M  END
>  <Name>
Romidepsin

>  <CAS #>
128517-07-7

>  <human Clearance (mL/min/kg)>
7.4

>  <Primary mechanism (metabolic, biliary or renal)>
metabolic

>  <seqId>
807.0

>  <Code (mechanism and clearance degree index)>
M1

>  < Five M1 and R1 test groups>
M1_3

>  <formamide>
0

>  <prodrug phosphates>
0

>  <VolSurf_V>
1039.25

>  <VolSurf_S>
649.907

>  <VolSurf_R>
1.59907

>  <VolSurf_G>
1.4991

>  <VolSurf_IW1>
0.036805

>  <VolSurf_IW2>
0.115064

>  <VolSurf_IW3>
0.284659

>  <VolSurf_IW4>
0.448901

>  <VolSurf_ID1>
0.0208753

>  <VolSurf_ID2>
0.068472

>  <VolSurf_ID3>
0.118949

>  <VolSurf_ID4>
0.191676

>  <VolSurf_HL1>
5.07282

>  <VolSurf_HL2>
8.0

>  <VolSurf_A>
4.35281

>  <VolSurf_CP>
0.322092

>  <VolSurf_POL>
54.693

>  <VolSurf_MW>
540.696

>  <VolSurf_FLEX>
0.306985

>  <VolSurf_FLEX_RB>
0.043855

>  <VolSurf_NCC>
0.0

>  <VolSurf_LOGP n-Oct>
-0.143

>  <VolSurf_LOGP c-Hex>
-6.449

>  <VolSurf_PSA>
174.79

>  <VolSurf_HSA>
475.117

>  <VolSurf_PSAR>
0.268946

>  <VolSurf_PHSAR>
0.367888

>  <VolSurf_LgD5>
-0.143

>  <VolSurf_LgD6>
-0.143

>  <VolSurf_LgD7>
-0.143

>  <VolSurf_LgD7.5>
-0.143

>  <VolSurf_LgD8>
-0.143

>  <VolSurf_LgD9>
-0.143006

>  <VolSurf_LgD10>
-0.14306

>  <VolSurf_AUS7.4>
2.0

>  <VolSurf_%FU4>
100.0

>  <VolSurf_%FU5>
100.0

>  <VolSurf_%FU6>
100.0

>  <VolSurf_%FU7>
100.0

>  <VolSurf_%FU8>
99.9999

>  <VolSurf_%FU9>
99.9986

>  <VolSurf_%FU10>
99.9861

>  <ID>
386

>  <MOKAID>
387

>  <Clearance Route>
possible billary

>  <PC1>
0.807078

>  <PC2>
-1.60057

$$$$
Ropinirole
  -OEChem-08301611272D

 19 20  0     0  0  0  0  0  0999 V2000
    2.6938    1.3169    0.0000 N   0  0  0  0  0  0  0  0  0  0  0  0
    3.2858    0.5023    0.0000 C   0  0  0  0  0  0  0  0  0  0  0  0
    2.6938   -0.3125    0.0000 C   0  0  0  0  0  0  0  0  0  0  0  0
    1.7360   -0.0012    0.0000 C   0  0  0  0  0  0  0  0  0  0  0  0
    1.7360    1.0058    0.0000 C   0  0  0  0  0  0  0  0  0  0  0  0
    0.8680    1.5138    0.0000 C   0  0  0  0  0  0  0  0  0  0  0  0
    0.0000    1.0058    0.0000 C   0  0  0  0  0  0  0  0  0  0  0  0
    0.0000    0.0000    0.0000 C   0  0  0  0  0  0  0  0  0  0  0  0
    0.8680   -0.4978    0.0000 C   0  0  0  0  0  0  0  0  0  0  0  0
    0.8675   -1.4978    0.0000 C   0  0  0  0  0  0  0  0  0  0  0  0
    1.7332   -1.9983    0.0000 C   0  0  0  0  0  0  0  0  0  0  0  0
    1.7327   -2.9983    0.0000 N   0  0  0  0  0  0  0  0  0  0  0  0
    2.5985   -3.4987    0.0000 C   0  0  0  0  0  0  0  0  0  0  0  0
    3.4648   -2.9992    0.0000 C   0  0  0  0  0  0  0  0  0  0  0  0
    4.3305   -3.4996    0.0000 C   0  0  0  0  0  0  0  0  0  0  0  0
    0.8664   -3.4978    0.0000 C   0  0  0  0  0  0  0  0  0  0  0  0
    0.8659   -4.4978    0.0000 C   0  0  0  0  0  0  0  0  0  0  0  0
   -0.0004   -4.9973    0.0000 C   0  0  0  0  0  0  0  0  0  0  0  0
    4.2858    0.5024    0.0000 O   0  0  0  0  0  0  0  0  0  0  0  0
  1  5  1  0  0  0  0
  1  2  1  0  0  0  0
  2  3  1  0  0  0  0
  3  4  1  0  0  0  0
  4  9  2  0  0  0  0
  4  5  1  0  0  0  0
  5  6  2  0  0  0  0
  6  7  1  0  0  0  0
  7  8  2  0  0  0  0
  8  9  1  0  0  0  0
  9 10  1  0  0  0  0
 10 11  1  0  0  0  0
 11 12  1  0  0  0  0
 12 13  1  0  0  0  0
 13 14  1  0  0  0  0
 14 15  1  0  0  0  0
 12 16  1  0  0  0  0
 16 17  1  0  0  0  0
 17 18  1  0  0  0  0
  2 19  2  0  0  0  0
M  END
>  <Name>
Ropinirole

>  <CAS #>
91374-21-9

>  <human Clearance (mL/min/kg)>
30.0

>  <Primary mechanism (metabolic, biliary or renal)>
metabolic

>  <seqId>
808.0

>  <Code (mechanism and clearance degree index)>
M1

>  < Five M1 and R1 test groups>
M1_4

>  <formamide>
0

>  <prodrug phosphates>
0

>  <VolSurf_V>
696.25

>  <VolSurf_S>
475.907

>  <VolSurf_R>
1.46299

>  <VolSurf_G>
1.40214

>  <VolSurf_IW1>
0.128151

>  <VolSurf_IW2>
0.511213

>  <VolSurf_IW3>
1.13183

>  <VolSurf_IW4>
1.56222

>  <VolSurf_ID1>
0.0201675

>  <VolSurf_ID2>
0.0785589

>  <VolSurf_ID3>
0.148212

>  <VolSurf_ID4>
0.238255

>  <VolSurf_HL1>
0.995506

>  <VolSurf_HL2>
0.913725

>  <VolSurf_A>
4.95506

>  <VolSurf_CP>
1.89778

>  <VolSurf_POL>
32.556

>  <VolSurf_MW>
261.382

>  <VolSurf_FLEX>
1.62036

>  <VolSurf_FLEX_RB>
0.18004

>  <VolSurf_NCC>
1.0

>  <VolSurf_LOGP n-Oct>
2.89

>  <VolSurf_LOGP c-Hex>
0.863

>  <VolSurf_PSA>
40.51

>  <VolSurf_HSA>
435.397

>  <VolSurf_PSAR>
0.0851216

>  <VolSurf_PHSAR>
0.0930414

>  <VolSurf_LgD5>
-1.18723

>  <VolSurf_LgD6>
-0.278925

>  <VolSurf_LgD7>
0.708203

>  <VolSurf_LgD7.5>
1.20128

>  <VolSurf_LgD8>
1.68216

>  <VolSurf_LgD9>
2.48449

>  <VolSurf_LgD10>
2.72776

>  <VolSurf_AUS7.4>
0.36775

>  <VolSurf_%FU4>
6.60542E-4

>  <VolSurf_%FU5>
0.00660503

>  <VolSurf_%FU6>
0.066011

>  <VolSurf_%FU7>
0.656211

>  <VolSurf_%FU8>
6.19502

>  <VolSurf_%FU9>
39.3072

>  <VolSurf_%FU10>
68.82

>  <ID>
387

>  <MOKAID>
388

>  <Clearance Route>
metabolic

>  <PC1>
2.0739799999999997

>  <PC2>
1.5238

$$$$
Ropivacaine
  -OEChem-08301611272D

 20 21  0     1  0  0  0  0  0999 V2000
   -0.8660    4.5104    0.0000 C   0  0  0  0  0  0  0  0  0  0  0  0
   -0.8660    3.5104    0.0000 C   0  0  0  0  0  0  0  0  0  0  0  0
   -0.0000    3.0104    0.0000 C   0  0  0  0  0  0  0  0  0  0  0  0
   -0.0000    2.0104    0.0000 N   0  0  3  0  0  0  0  0  0  0  0  0
   -0.8675    1.5027    0.0000 C   0  0  0  0  0  0  0  0  0  0  0  0
   -0.8675    0.4975    0.0000 C   0  0  0  0  0  0  0  0  0  0  0  0
    0.0000    0.0000    0.0000 C   0  0  0  0  0  0  0  0  0  0  0  0
    0.8675    0.4975    0.0000 C   0  0  0  0  0  0  0  0  0  0  0  0
    0.8675    1.5027    0.0000 C   0  0  1  0  0  0  0  0  0  0  0  0
    1.7350    2.0001    0.0000 C   0  0  0  0  0  0  0  0  0  0  0  0
    2.5995    1.4976    0.0000 O   0  0  0  0  0  0  0  0  0  0  0  0
    1.7379    3.0001    0.0000 N   0  0  0  0  0  0  0  0  0  0  0  0
    2.6054    3.4976    0.0000 C   0  0  0  0  0  0  0  0  0  0  0  0
    3.4774    2.9976    0.0000 C   0  0  0  0  0  0  0  0  0  0  0  0
    3.4774    1.9976    0.0000 C   0  0  0  0  0  0  0  0  0  0  0  0
    4.3494    3.4976    0.0000 C   0  0  0  0  0  0  0  0  0  0  0  0
    4.3495    4.4976    0.0000 C   0  0  0  0  0  0  0  0  0  0  0  0
    3.4863    5.0027    0.0000 C   0  0  0  0  0  0  0  0  0  0  0  0
    2.6143    4.5027    0.0000 C   0  0  0  0  0  0  0  0  0  0  0  0
    1.7513    5.0078    0.0000 C   0  0  0  0  0  0  0  0  0  0  0  0
  1  2  1  0  0  0  0
  2  3  1  0  0  0  0
  3  4  1  0  0  0  0
  4  9  1  0  0  0  0
  4  5  1  0  0  0  0
  5  6  1  0  0  0  0
  6  7  1  0  0  0  0
  7  8  1  0  0  0  0
  8  9  1  0  0  0  0
  9 10  1  6  0  0  0
 10 11  2  0  0  0  0
 10 12  1  0  0  0  0
 12 13  1  0  0  0  0
 13 19  2  0  0  0  0
 13 14  1  0  0  0  0
 14 15  1  0  0  0  0
 14 16  2  0  0  0  0
 16 17  1  0  0  0  0
 17 18  2  0  0  0  0
 18 19  1  0  0  0  0
 19 20  1  0  0  0  0
M  END
>  <Name>
Ropivacaine

>  <CAS #>
84057-95-4

>  <human Clearance (mL/min/kg)>
5.5

>  <Primary mechanism (metabolic, biliary or renal)>
metabolic

>  <seqId>
809.0

>  <Code (mechanism and clearance degree index)>
M1

>  < Five M1 and R1 test groups>
M1_4

>  <formamide>
0

>  <prodrug phosphates>
0

>  <VolSurf_V>
703.875

>  <VolSurf_S>
474.734

>  <VolSurf_R>
1.48267

>  <VolSurf_G>
1.38183

>  <VolSurf_IW1>
0.048989

>  <VolSurf_IW2>
0.273744

>  <VolSurf_IW3>
0.598746

>  <VolSurf_IW4>
0.810576

>  <VolSurf_ID1>
0.017493

>  <VolSurf_ID2>
0.0793687

>  <VolSurf_ID3>
0.18516

>  <VolSurf_ID4>
0.323156

>  <VolSurf_HL1>
1.24275

>  <VolSurf_HL2>
1.57143

>  <VolSurf_A>
4.33343

>  <VolSurf_CP>
1.20303

>  <VolSurf_POL>
34.391

>  <VolSurf_MW>
275.409

>  <VolSurf_FLEX>
0.955294

>  <VolSurf_FLEX_RB>
0.136471

>  <VolSurf_NCC>
1.0

>  <VolSurf_LOGP n-Oct>
3.475

>  <VolSurf_LOGP c-Hex>
3.105

>  <VolSurf_PSA>
40.51

>  <VolSurf_HSA>
434.224

>  <VolSurf_PSAR>
0.0853319

>  <VolSurf_PHSAR>
0.0932928

>  <VolSurf_LgD5>
1.74964

>  <VolSurf_LgD6>
1.9797

>  <VolSurf_LgD7>
2.64036

>  <VolSurf_LgD7.5>
3.00015

>  <VolSurf_LgD8>
3.25939

>  <VolSurf_LgD9>
3.44766

>  <VolSurf_LgD10>
3.47208

>  <VolSurf_AUS7.4>
1.45047

>  <VolSurf_%FU4>
0.0151093

>  <VolSurf_%FU5>
0.150888

>  <VolSurf_%FU6>
1.48867

>  <VolSurf_%FU7>
13.1278

>  <VolSurf_%FU8>
60.1777

>  <VolSurf_%FU9>
93.7911

>  <VolSurf_%FU10>
99.3181

>  <ID>
388

>  <MOKAID>
389

>  <Clearance Route>
metabolic

>  <PC1>
3.34895

>  <PC2>
-0.0217805

$$$$
Rosaramicin
  -OEChem-08301611272D

 42 44  0     1  0  0  0  0  0999 V2000
   -5.0381    0.2073    0.0000 C   0  0  0  0  0  0  0  0  0  0  0  0
   -4.1719    0.7074    0.0000 C   0  0  0  0  0  0  0  0  0  0  0  0
   -3.3059    0.2073    0.0000 C   0  0  0  0  0  0  0  0  0  0  0  0
   -2.4397    0.7074    0.0000 C   0  0  1  0  0  0  0  0  0  0  0  0
   -1.5734    0.2073    0.0000 C   0  0  0  0  0  0  0  0  0  0  0  0
   -0.7072    0.7074    0.0000 C   0  0  1  0  0  0  0  0  0  0  0  0
    0.0000   -0.0000    0.0000 C   0  0  1  0  0  0  0  0  0  0  0  0
   -0.5001   -0.8661    0.0000 C   0  0  1  0  0  0  0  0  0  0  0  0
   -0.0299   -1.7487    0.0000 C   0  0  0  0  0  0  0  0  0  0  0  0
   -1.5734   -0.7929    0.0000 C   0  0  1  0  0  0  0  0  0  0  0  0
   -2.4397   -1.2930    0.0000 C   0  0  0  0  0  0  0  0  0  0  0  0
   -3.3059   -0.7929    0.0000 C   0  0  0  0  0  0  0  0  0  0  0  0
   -4.1719   -1.2930    0.0000 O   0  0  0  0  0  0  0  0  0  0  0  0
   -5.0381   -0.7929    0.0000 C   0  0  1  0  0  0  0  0  0  0  0  0
   -5.9044   -1.2930    0.0000 C   0  0  1  0  0  0  0  0  0  0  0  0
   -5.9045   -2.2930    0.0000 C   0  0  0  0  0  0  0  0  0  0  0  0
   -6.7704   -0.7929    0.0000 C   0  0  2  0  0  0  0  0  0  0  0  0
   -6.7704    0.2073    0.0000 O   0  0  0  0  0  0  0  0  0  0  0  0
   -5.9044    0.7074    0.0000 C   0  0  1  0  0  0  0  0  0  0  0  0
   -5.9045    2.4574    0.0000 C   0  0  0  0  0  0  0  0  0  0  0  0
   -5.0381    0.9571    0.0000 C   0  0  0  0  0  0  0  0  0  0  0  0
   -5.9041    1.4571    0.0000 C   0  0  0  0  0  0  0  0  0  0  0  0
   -3.3060    0.9571    0.0000 O   0  0  0  0  0  0  0  0  0  0  0  0
   -1.7992    0.1813    0.0000 O   0  0  0  0  0  0  0  0  0  0  0  0
    0.9915    0.1304    0.0000 O   0  0  0  0  0  0  0  0  0  0  0  0
    1.6001   -0.6630    0.0000 C   0  0  2  0  0  0  0  0  0  0  0  0
    1.2127   -1.5904    0.0000 O   0  0  0  0  0  0  0  0  0  0  0  0
    1.8315   -2.3825    0.0000 C   0  0  1  0  0  0  0  0  0  0  0  0
    2.8277   -2.2484    0.0000 C   0  0  0  0  0  0  0  0  0  0  0  0
    3.2051   -1.3223    0.0000 C   0  0  1  0  0  0  0  0  0  0  0  0
    2.5964   -0.5289    0.0000 C   0  0  2  0  0  0  0  0  0  0  0  0
    2.9778    0.3955    0.0000 O   0  0  0  0  0  0  0  0  0  0  0  0
    4.1962   -1.1890    0.0000 N   0  0  0  0  0  0  0  0  0  0  0  0
    4.5762   -0.2640    0.0000 C   0  0  0  0  0  0  0  0  0  0  0  0
    4.8072   -1.9806    0.0000 C   0  0  0  0  0  0  0  0  0  0  0  0
    1.4542   -3.3086    0.0000 C   0  0  0  0  0  0  0  0  0  0  0  0
   -0.5766    1.6988    0.0000 C   0  0  0  0  0  0  0  0  0  0  0  0
   -1.3699    2.3077    0.0000 C   0  0  0  0  0  0  0  0  0  0  0  0
   -1.2393    3.2991    0.0000 O   0  0  0  0  0  0  0  0  0  0  0  0
   -2.4397    1.7074    0.0000 C   0  0  0  0  0  0  0  0  0  0  0  0
   -3.3060   -1.5427    0.0000 O   0  0  0  0  0  0  0  0  0  0  0  0
   -7.6365   -1.2929    0.0000 H   0  0  0  0  0  0  0  0  0  0  0  0
  1 19  1  0  0  0  0
  1  2  2  3  0  0  0
  2  3  1  0  0  0  0
  3  4  1  0  0  0  0
  4  5  1  0  0  0  0
  5  6  1  0  0  0  0
  6  7  1  0  0  0  0
  7  8  1  0  0  0  0
  8  9  1  1  0  0  0
  8 10  1  0  0  0  0
 10 11  1  0  0  0  0
 11 12  1  0  0  0  0
 12 13  1  0  0  0  0
 13 14  1  0  0  0  0
 14 15  1  0  0  0  0
 15 16  1  1  0  0  0
 15 17  1  0  0  0  0
 17 19  1  0  0  0  0
 17 18  1  0  0  0  0
 18 19  1  0  0  0  0
 19 20  1  6  0  0  0
 14 21  1  1  0  0  0
 21 22  1  0  0  0  0
 12 23  2  0  0  0  0
 10 24  1  1  0  0  0
  7 25  1  6  0  0  0
 26 25  1  1  0  0  0
 26 31  1  0  0  0  0
 26 27  1  0  0  0  0
 27 28  1  0  0  0  0
 28 29  1  0  0  0  0
 29 30  1  0  0  0  0
 30 31  1  0  0  0  0
 31 32  1  1  0  0  0
 30 33  1  1  0  0  0
 33 34  1  0  0  0  0
 33 35  1  0  0  0  0
 28 36  1  1  0  0  0
  6 37  1  6  0  0  0
 37 38  1  0  0  0  0
 38 39  2  0  0  0  0
  4 40  1  6  0  0  0
  3 41  2  0  0  0  0
 17 42  1  1  0  0  0
M  END
>  <Name>
Rosaramicin

>  <CAS #>
35834-26-5

>  <human Clearance (mL/min/kg)>
2.83

>  <Primary mechanism (metabolic, biliary or renal)>
metabolic

>  <seqId>
811.0

>  <Code (mechanism and clearance degree index)>
M1

>  < Five M1 and R1 test groups>
M1_1

>  <formamide>
0

>  <prodrug phosphates>
0

>  <VolSurf_V>
1229.88

>  <VolSurf_S>
748.924

>  <VolSurf_R>
1.64219

>  <VolSurf_G>
1.567

>  <VolSurf_IW1>
0.0552178

>  <VolSurf_IW2>
0.128252

>  <VolSurf_IW3>
0.271068

>  <VolSurf_IW4>
0.393617

>  <VolSurf_ID1>
0.0174001

>  <VolSurf_ID2>
0.0428213

>  <VolSurf_ID3>
0.116695

>  <VolSurf_ID4>
0.246687

>  <VolSurf_HL1>
13.0661

>  <VolSurf_HL2>
13.4531

>  <VolSurf_A>
2.50663

>  <VolSurf_CP>
0.200981

>  <VolSurf_POL>
61.9171

>  <VolSurf_MW>
582.746

>  <VolSurf_FLEX>
1.20091

>  <VolSurf_FLEX_RB>
0.0750571

>  <VolSurf_NCC>
1.0

>  <VolSurf_LOGP n-Oct>
2.464

>  <VolSurf_LOGP c-Hex>
0.579

>  <VolSurf_PSA>
149.9

>  <VolSurf_HSA>
599.024

>  <VolSurf_PSAR>
0.200154

>  <VolSurf_PHSAR>
0.25024

>  <VolSurf_LgD5>
-0.851983

>  <VolSurf_LgD6>
-0.15602

>  <VolSurf_LgD7>
0.789493

>  <VolSurf_LgD7.5>
1.26658

>  <VolSurf_LgD8>
1.70975

>  <VolSurf_LgD9>
2.29715

>  <VolSurf_LgD10>
2.4441

>  <VolSurf_AUS7.4>
0.762513

>  <VolSurf_%FU4>
0.00213402

>  <VolSurf_%FU5>
0.0213361

>  <VolSurf_%FU6>
0.212952

>  <VolSurf_%FU7>
2.08947

>  <VolSurf_%FU8>
17.5874

>  <VolSurf_%FU9>
68.0924

>  <VolSurf_%FU10>
95.5202

>  <ID>
389

>  <MOKAID>
390

>  <Clearance Route>
possible billary

>  <PC1>
0.614741

>  <PC2>
-3.13428

$$$$
Rosiglitazone
  -OEChem-08301611272D

 25 27  0     1  0  0  0  0  0999 V2000
    1.7379    3.0001    0.0000 C   0  0  0  0  0  0  0  0  0  0  0  0
    1.7350    2.0001    0.0000 N   0  0  3  0  0  0  0  0  0  0  0  0
    2.5995    1.4976    0.0000 C   0  0  0  0  0  0  0  0  0  0  0  0
    3.4670    1.9950    0.0000 C   0  0  0  0  0  0  0  0  0  0  0  0
    4.3316    1.4925    0.0000 O   0  0  0  0  0  0  0  0  0  0  0  0
    5.1991    1.9899    0.0000 C   0  0  0  0  0  0  0  0  0  0  0  0
    5.1991    2.9951    0.0000 C   0  0  0  0  0  0  0  0  0  0  0  0
    6.0666    3.4926    0.0000 C   0  0  0  0  0  0  0  0  0  0  0  0
    6.9341    2.9951    0.0000 C   0  0  0  0  0  0  0  0  0  0  0  0
    7.7994    3.4964    0.0000 C   0  0  0  0  0  0  0  0  0  0  0  0
    7.7979    4.4964    0.0000 C   0  0  3  0  0  0  0  0  0  0  0  0
    6.9861    5.0807    0.0000 S   0  0  0  0  0  0  0  0  0  0  0  0
    7.2958    6.0362    0.0000 C   0  0  0  0  0  0  0  0  0  0  0  0
    6.7082    6.8453    0.0000 O   0  0  0  0  0  0  0  0  0  0  0  0
    8.2974    6.0350    0.0000 N   0  0  0  0  0  0  0  0  0  0  0  0
    8.6079    5.0829    0.0000 C   0  0  0  0  0  0  0  0  0  0  0  0
    9.5589    4.7736    0.0000 O   0  0  0  0  0  0  0  0  0  0  0  0
    6.9341    1.9899    0.0000 C   0  0  0  0  0  0  0  0  0  0  0  0
    6.0666    1.4822    0.0000 C   0  0  0  0  0  0  0  0  0  0  0  0
    0.8675    1.5027    0.0000 C   0  0  0  0  0  0  0  0  0  0  0  0
    0.8675    0.4975    0.0000 C   0  0  0  0  0  0  0  0  0  0  0  0
    0.0000    0.0000    0.0000 C   0  0  0  0  0  0  0  0  0  0  0  0
   -0.8675    0.4975    0.0000 C   0  0  0  0  0  0  0  0  0  0  0  0
   -0.8675    1.5027    0.0000 C   0  0  0  0  0  0  0  0  0  0  0  0
    0.0000    2.0104    0.0000 N   0  0  0  0  0  0  0  0  0  0  0  0
  1  2  1  0  0  0  0
  2  3  1  0  0  0  0
  3  4  1  0  0  0  0
  4  5  1  0  0  0  0
  5  6  1  0  0  0  0
  6 19  2  0  0  0  0
  6  7  1  0  0  0  0
  7  8  2  0  0  0  0
  8  9  1  0  0  0  0
  9 10  1  0  0  0  0
 10 11  1  0  0  0  0
 11 16  1  0  0  0  0
 11 12  1  0  0  0  0
 12 13  1  0  0  0  0
 13 14  2  0  0  0  0
 13 15  1  0  0  0  0
 15 16  1  0  0  0  0
 16 17  2  0  0  0  0
  9 18  2  0  0  0  0
 18 19  1  0  0  0  0
  2 20  1  0  0  0  0
 20 25  2  0  0  0  0
 20 21  1  0  0  0  0
 21 22  2  0  0  0  0
 22 23  1  0  0  0  0
 23 24  2  0  0  0  0
 24 25  1  0  0  0  0
M  END
>  <Name>
Rosiglitazone

>  <CAS #>
122320-73-4

>  <human Clearance (mL/min/kg)>
0.65

>  <Primary mechanism (metabolic, biliary or renal)>
metabolic

>  <seqId>
812.0

>  <Code (mechanism and clearance degree index)>
M1

>  < Five M1 and R1 test groups>
M1_1

>  <formamide>
0

>  <prodrug phosphates>
0

>  <VolSurf_V>
787.5

>  <VolSurf_S>
547.12

>  <VolSurf_R>
1.43936

>  <VolSurf_G>
1.52808

>  <VolSurf_IW1>
0.133809

>  <VolSurf_IW2>
0.39026

>  <VolSurf_IW3>
1.0216

>  <VolSurf_IW4>
1.59216

>  <VolSurf_ID1>
0.0844629

>  <VolSurf_ID2>
0.133878

>  <VolSurf_ID3>
0.218619

>  <VolSurf_ID4>
0.347463

>  <VolSurf_HL1>
2.00813

>  <VolSurf_HL2>
1.70486

>  <VolSurf_A>
9.07284

>  <VolSurf_CP>
0.640716

>  <VolSurf_POL>
37.06

>  <VolSurf_MW>
356.419

>  <VolSurf_FLEX>
3.10971

>  <VolSurf_FLEX_RB>
0.388713

>  <VolSurf_NCC>
1.0

>  <VolSurf_LOGP n-Oct>
3.212

>  <VolSurf_LOGP c-Hex>
1.97

>  <VolSurf_PSA>
72.98

>  <VolSurf_HSA>
474.14

>  <VolSurf_PSAR>
0.133389

>  <VolSurf_PHSAR>
0.153921

>  <VolSurf_LgD5>
0.043155

>  <VolSurf_LgD6>
0.570181

>  <VolSurf_LgD7>
0.480425

>  <VolSurf_LgD7.5>
0.200305

>  <VolSurf_LgD8>
-0.0498021

>  <VolSurf_LgD9>
-0.255989

>  <VolSurf_LgD10>
-0.284675

>  <VolSurf_AUS7.4>
0.0

>  <VolSurf_%FU4>
0.0

>  <VolSurf_%FU5>
0.0

>  <VolSurf_%FU6>
0.0

>  <VolSurf_%FU7>
0.0

>  <VolSurf_%FU8>
0.0

>  <VolSurf_%FU9>
0.0

>  <VolSurf_%FU10>
0.0

>  <ID>
390

>  <MOKAID>
391

>  <Clearance Route>
uncertain

>  <PC1>
0.5178560000000001

>  <PC2>
0.731999

$$$$
Scopolamine
  -OEChem-08301611272D

 26 29  0     1  0  0  0  0  0999 V2000
    0.8438   -0.1128    0.0000 C   0  0  0  0  0  0  0  0  0  0  0  0
   -0.9053   -0.0567    0.0000 N   0  0  0  0  0  0  0  0  0  0  0  0
   -1.5056   -0.8660    0.0000 C   0  0  2  0  0  0  0  0  0  0  0  0
   -0.5000   -0.8660    0.0000 C   0  0  0  0  0  0  0  0  0  0  0  0
    0.0000    0.0000    0.0000 C   0  0  2  0  0  0  0  0  0  0  0  0
   -0.5000    0.8716    0.0000 C   0  0  0  0  0  0  0  0  0  0  0  0
   -1.5056    0.8716    0.0000 C   0  0  1  0  0  0  0  0  0  0  0  0
   -2.4453    0.5045    0.0000 C   0  0  2  0  0  0  0  0  0  0  0  0
   -3.3166    0.0133    0.0000 O   0  0  0  0  0  0  0  0  0  0  0  0
   -2.4554   -0.4956    0.0000 C   0  0  2  0  0  0  0  0  0  0  0  0
    1.7500   -0.0024    0.0000 O   0  0  0  0  0  0  0  0  0  0  0  0
    2.2512    0.8629    0.0000 C   0  0  0  0  0  0  0  0  0  0  0  0
    1.7524    1.7296    0.0000 O   0  0  0  0  0  0  0  0  0  0  0  0
    3.2512    0.8615    0.0000 C   0  0  2  0  0  0  0  0  0  0  0  0
    3.7524    1.7268    0.0000 C   0  0  0  0  0  0  0  0  0  0  0  0
    3.2536    2.5935    0.0000 O   0  0  0  0  0  0  0  0  0  0  0  0
    3.7500   -0.0052    0.0000 C   0  0  0  0  0  0  0  0  0  0  0  0
    4.7552   -0.0037    0.0000 C   0  0  0  0  0  0  0  0  0  0  0  0
    5.2540   -0.8704    0.0000 C   0  0  0  0  0  0  0  0  0  0  0  0
    4.7579   -1.7387    0.0000 C   0  0  0  0  0  0  0  0  0  0  0  0
    3.7527   -1.7402    0.0000 C   0  0  0  0  0  0  0  0  0  0  0  0
    3.2436   -0.8735    0.0000 C   0  0  0  0  0  0  0  0  0  0  0  0
   -1.6904   -1.8488    0.0000 H   0  0  0  0  0  0  0  0  0  0  0  0
   -1.6907    1.8543    0.0000 H   0  0  0  0  0  0  0  0  0  0  0  0
   -2.8738    1.4080    0.0000 H   0  0  0  0  0  0  0  0  0  0  0  0
   -2.8929   -1.3948    0.0000 H   0  0  0  0  0  0  0  0  0  0  0  0
  1  2  1  0  0  0  0
  2  7  1  0  0  0  0
  2  3  1  0  0  0  0
  3 10  1  0  0  0  0
  3  4  1  0  0  0  0
  4  5  1  0  0  0  0
  5  6  1  0  0  0  0
  6  7  1  0  0  0  0
  7  8  1  0  0  0  0
  8 10  1  0  0  0  0
  8  9  1  0  0  0  0
  9 10  1  0  0  0  0
  5 11  1  6  0  0  0
 11 12  1  0  0  0  0
 12 13  2  0  0  0  0
 14 12  1  6  0  0  0
 14 15  1  0  0  0  0
 15 16  1  0  0  0  0
 14 17  1  0  0  0  0
 17 22  2  0  0  0  0
 17 18  1  0  0  0  0
 18 19  2  0  0  0  0
 19 20  1  0  0  0  0
 20 21  2  0  0  0  0
 21 22  1  0  0  0  0
  3 23  1  1  0  0  0
  7 24  1  1  0  0  0
  8 25  1  6  0  0  0
 10 26  1  6  0  0  0
M  END
>  <Name>
Scopolamine

>  <CAS #>
51-34-3

>  <human Clearance (mL/min/kg)>
16.0

>  <Primary mechanism (metabolic, biliary or renal)>
metabolic

>  <seqId>
824.0

>  <Code (mechanism and clearance degree index)>
M1

>  < Five M1 and R1 test groups>
M1_2

>  <formamide>
0

>  <prodrug phosphates>
0

>  <VolSurf_V>
681.5

>  <VolSurf_S>
462.796

>  <VolSurf_R>
1.47257

>  <VolSurf_G>
1.3737

>  <VolSurf_IW1>
0.093731

>  <VolSurf_IW2>
0.293452

>  <VolSurf_IW3>
0.670079

>  <VolSurf_IW4>
0.995238

>  <VolSurf_ID1>
0.0587912

>  <VolSurf_ID2>
0.131773

>  <VolSurf_ID3>
0.299748

>  <VolSurf_ID4>
0.519054

>  <VolSurf_HL1>
3.79878

>  <VolSurf_HL2>
5.06557

>  <VolSurf_A>
4.99506

>  <VolSurf_CP>
0.291184

>  <VolSurf_POL>
33.568

>  <VolSurf_MW>
304.361

>  <VolSurf_FLEX>
1.68879

>  <VolSurf_FLEX_RB>
0.241256

>  <VolSurf_NCC>
1.0

>  <VolSurf_LOGP n-Oct>
1.093

>  <VolSurf_LOGP c-Hex>
-0.465

>  <VolSurf_PSA>
70.47

>  <VolSurf_HSA>
392.326

>  <VolSurf_PSAR>
0.15227

>  <VolSurf_PHSAR>
0.179621

>  <VolSurf_LgD5>
-0.789326

>  <VolSurf_LgD6>
-0.381493

>  <VolSurf_LgD7>
0.392398

>  <VolSurf_LgD7.5>
0.729364

>  <VolSurf_LgD8>
0.941205

>  <VolSurf_LgD9>
1.07513

>  <VolSurf_LgD10>
1.09117

>  <VolSurf_AUS7.4>
1.57811

>  <VolSurf_%FU4>
0.0235299

>  <VolSurf_%FU5>
0.234802

>  <VolSurf_%FU6>
2.29943

>  <VolSurf_%FU7>
19.0516

>  <VolSurf_%FU8>
70.1808

>  <VolSurf_%FU9>
95.9242

>  <VolSurf_%FU10>
99.5758

>  <ID>
391

>  <MOKAID>
392

>  <Clearance Route>
metabolic

>  <PC1>
1.51024

>  <PC2>
1.7479799999999999

$$$$
Selegiline
  -OEChem-08301611272D

 14 14  0     1  0  0  0  0  0999 V2000
    2.5966    0.4976    0.0000 C   0  0  0  0  0  0  0  0  0  0  0  0
    2.5995    1.4976    0.0000 C   0  0  3  0  0  0  0  0  0  0  0  0
    1.7350    2.0001    0.0000 C   0  0  0  0  0  0  0  0  0  0  0  0
    0.8675    1.5027    0.0000 C   0  0  0  0  0  0  0  0  0  0  0  0
    0.8675    0.4975    0.0000 C   0  0  0  0  0  0  0  0  0  0  0  0
    0.0000    0.0000    0.0000 C   0  0  0  0  0  0  0  0  0  0  0  0
   -0.8675    0.4975    0.0000 C   0  0  0  0  0  0  0  0  0  0  0  0
   -0.8675    1.5027    0.0000 C   0  0  0  0  0  0  0  0  0  0  0  0
    0.0000    2.0104    0.0000 C   0  0  0  0  0  0  0  0  0  0  0  0
    3.4670    1.9950    0.0000 N   0  0  3  0  0  0  0  0  0  0  0  0
    3.4700    2.9950    0.0000 C   0  0  0  0  0  0  0  0  0  0  0  0
    4.3316    1.4925    0.0000 C   0  0  0  0  0  0  0  0  0  0  0  0
    5.1991    1.9899    0.0000 C   0  0  0  0  0  0  0  0  0  0  0  0
    6.0666    2.4874    0.0000 C   0  0  0  0  0  0  0  0  0  0  0  0
  1  2  1  0  0  0  0
  2  3  1  0  0  0  0
  3  4  1  0  0  0  0
  4  9  2  0  0  0  0
  4  5  1  0  0  0  0
  5  6  2  0  0  0  0
  6  7  1  0  0  0  0
  7  8  2  0  0  0  0
  8  9  1  0  0  0  0
  2 10  1  0  0  0  0
 10 11  1  0  0  0  0
 10 12  1  0  0  0  0
 12 13  1  0  0  0  0
 13 14  3  0  0  0  0
M  END
>  <Name>
Selegiline

>  <CAS #>
2323-36-6

>  <human Clearance (mL/min/kg)>
20.0

>  <Primary mechanism (metabolic, biliary or renal)>
metabolic

>  <seqId>
825.0

>  <Code (mechanism and clearance degree index)>
M1

>  < Five M1 and R1 test groups>
M1_3

>  <formamide>
0

>  <prodrug phosphates>
0

>  <VolSurf_V>
554.875

>  <VolSurf_S>
386.941

>  <VolSurf_R>
1.434

>  <VolSurf_G>
1.28987

>  <VolSurf_IW1>
0.020654

>  <VolSurf_IW2>
0.423289

>  <VolSurf_IW3>
0.895838

>  <VolSurf_IW4>
1.17055

>  <VolSurf_ID1>
0.0136951

>  <VolSurf_ID2>
0.0510812

>  <VolSurf_ID3>
0.152432

>  <VolSurf_ID4>
0.265143

>  <VolSurf_HL1>
0.12848

>  <VolSurf_HL2>
0.0938967

>  <VolSurf_A>
4.4432

>  <VolSurf_CP>
12.5682

>  <VolSurf_POL>
25.449

>  <VolSurf_MW>
188.289

>  <VolSurf_FLEX>
1.39809

>  <VolSurf_FLEX_RB>
0.199727

>  <VolSurf_NCC>
1.0

>  <VolSurf_LOGP n-Oct>
2.762

>  <VolSurf_LOGP c-Hex>
2.969

>  <VolSurf_PSA>
11.41

>  <VolSurf_HSA>
375.531

>  <VolSurf_PSAR>
0.0294877

>  <VolSurf_PHSAR>
0.0303836

>  <VolSurf_LgD5>
0.198868

>  <VolSurf_LgD6>
1.14191

>  <VolSurf_LgD7>
2.05296

>  <VolSurf_LgD7.5>
2.39967

>  <VolSurf_LgD8>
2.6121

>  <VolSurf_LgD9>
2.74445

>  <VolSurf_LgD10>
2.76021

>  <VolSurf_AUS7.4>
1.58606

>  <VolSurf_%FU4>
0.0242426

>  <VolSurf_%FU5>
0.241898

>  <VolSurf_%FU6>
2.36744

>  <VolSurf_%FU7>
19.5161

>  <VolSurf_%FU8>
70.8016

>  <VolSurf_%FU9>
96.0394

>  <VolSurf_%FU10>
99.5893

>  <ID>
392

>  <MOKAID>
393

>  <Clearance Route>
metabolic

>  <PC1>
4.19064

>  <PC2>
1.68249

$$$$
Sematilide
  -OEChem-08301611272D

 21 21  0     0  0  0  0  0  0999 V2000
    4.3463    6.4925    0.0000 C   0  0  0  0  0  0  0  0  0  0  0  0
    3.4788    5.9950    0.0000 C   0  0  0  0  0  0  0  0  0  0  0  0
    3.4759    4.9950    0.0000 N   0  0  0  0  0  0  0  0  0  0  0  0
    4.3404    4.4925    0.0000 C   0  0  0  0  0  0  0  0  0  0  0  0
    5.2079    4.9899    0.0000 C   0  0  0  0  0  0  0  0  0  0  0  0
    2.6084    4.4976    0.0000 C   0  0  0  0  0  0  0  0  0  0  0  0
    2.6054    3.4976    0.0000 C   0  0  0  0  0  0  0  0  0  0  0  0
    1.7379    3.0001    0.0000 N   0  0  0  0  0  0  0  0  0  0  0  0
    1.7350    2.0001    0.0000 C   0  0  0  0  0  0  0  0  0  0  0  0
    2.5995    1.4976    0.0000 O   0  0  0  0  0  0  0  0  0  0  0  0
    0.8675    1.5027    0.0000 C   0  0  0  0  0  0  0  0  0  0  0  0
    0.8675    0.4975    0.0000 C   0  0  0  0  0  0  0  0  0  0  0  0
    0.0000    0.0000    0.0000 C   0  0  0  0  0  0  0  0  0  0  0  0
   -0.8675    0.4975    0.0000 C   0  0  0  0  0  0  0  0  0  0  0  0
   -1.7328   -0.0038    0.0000 N   0  0  0  0  0  0  0  0  0  0  0  0
   -1.7313   -1.0038    0.0000 S   0  0  0  0  0  0  0  0  0  0  0  0
   -0.7313   -1.0023    0.0000 O   0  0  0  0  0  0  0  0  0  0  0  0
   -2.7313   -1.0052    0.0000 O   0  0  0  0  0  0  0  0  0  0  0  0
   -1.7299   -2.0038    0.0000 C   0  0  0  0  0  0  0  0  0  0  0  0
   -0.8675    1.5027    0.0000 C   0  0  0  0  0  0  0  0  0  0  0  0
    0.0000    2.0104    0.0000 C   0  0  0  0  0  0  0  0  0  0  0  0
  1  2  1  0  0  0  0
  2  3  1  0  0  0  0
  3  4  1  0  0  0  0
  4  5  1  0  0  0  0
  3  6  1  0  0  0  0
  6  7  1  0  0  0  0
  7  8  1  0  0  0  0
  8  9  1  0  0  0  0
  9 10  2  0  0  0  0
  9 11  1  0  0  0  0
 11 21  2  0  0  0  0
 11 12  1  0  0  0  0
 12 13  2  0  0  0  0
 13 14  1  0  0  0  0
 14 15  1  0  0  0  0
 15 16  1  0  0  0  0
 16 17  2  0  0  0  0
 16 18  2  0  0  0  0
 16 19  1  0  0  0  0
 14 20  2  0  0  0  0
 20 21  1  0  0  0  0
M  END
>  <Name>
Sematilide

>  <CAS #>
101526-83-4

>  <human Clearance (mL/min/kg)>
3.7

>  <Primary mechanism (metabolic, biliary or renal)>
renal

>  <seqId>
826.0

>  <Code (mechanism and clearance degree index)>
R1

>  < Five M1 and R1 test groups>
R1_5

>  <formamide>
0

>  <prodrug phosphates>
0

>  <VolSurf_V>
736.75

>  <VolSurf_S>
521.076

>  <VolSurf_R>
1.4139

>  <VolSurf_G>
1.51812

>  <VolSurf_IW1>
0.114671

>  <VolSurf_IW2>
0.301544

>  <VolSurf_IW3>
0.536006

>  <VolSurf_IW4>
0.375437

>  <VolSurf_ID1>
0.0642916

>  <VolSurf_ID2>
0.0270262

>  <VolSurf_ID3>
0.043002

>  <VolSurf_ID4>
0.0811816

>  <VolSurf_HL1>
2.93358

>  <VolSurf_HL2>
1.43023

>  <VolSurf_A>
3.56614

>  <VolSurf_CP>
2.17787

>  <VolSurf_POL>
35.124

>  <VolSurf_MW>
313.416

>  <VolSurf_FLEX>
1.65049

>  <VolSurf_FLEX_RB>
0.150045

>  <VolSurf_NCC>
2.0

>  <VolSurf_LOGP n-Oct>
1.061

>  <VolSurf_LOGP c-Hex>
-2.183

>  <VolSurf_PSA>
83.03

>  <VolSurf_HSA>
438.046

>  <VolSurf_PSAR>
0.159343

>  <VolSurf_PHSAR>
0.189546

>  <VolSurf_LgD5>
-3.36386

>  <VolSurf_LgD6>
-2.61656

>  <VolSurf_LgD7>
-1.77981

>  <VolSurf_LgD7.5>
-1.49834

>  <VolSurf_LgD8>
-1.37124

>  <VolSurf_LgD9>
-1.55067

>  <VolSurf_LgD10>
-2.10517

>  <VolSurf_AUS7.4>
0.0

>  <VolSurf_%FU4>
0.0

>  <VolSurf_%FU5>
0.0

>  <VolSurf_%FU6>
0.0

>  <VolSurf_%FU7>
0.0

>  <VolSurf_%FU8>
0.0

>  <VolSurf_%FU9>
0.0

>  <VolSurf_%FU10>
0.0

>  <ID>
393

>  <MOKAID>
394

>  <Clearance Route>
renal

>  <PC1>
-1.72845

>  <PC2>
0.40931999999999996

$$$$
Sildenafil
  -OEChem-08301611272D

 33 36  0     0  0  0  0  0  0999 V2000
   -1.7333   -2.0149    0.0000 C   0  0  0  0  0  0  0  0  0  0  0  0
   -0.8680   -1.5137    0.0000 C   0  0  0  0  0  0  0  0  0  0  0  0
    0.0000   -2.0116    0.0000 N   0  0  0  0  0  0  0  0  0  0  0  0
    0.8680   -1.5150    0.0000 C   0  0  0  0  0  0  0  0  0  0  0  0
    0.8680   -0.5079    0.0000 C   0  0  0  0  0  0  0  0  0  0  0  0
    0.0000    0.0000    0.0000 C   0  0  0  0  0  0  0  0  0  0  0  0
    0.0000    1.0000    0.0000 O   0  0  0  0  0  0  0  0  0  0  0  0
   -0.8680   -0.5079    0.0000 N   0  0  0  0  0  0  0  0  0  0  0  0
    1.8258   -0.1969    0.0000 N   0  0  0  0  0  0  0  0  0  0  0  0
    2.4178   -1.0115    0.0000 N   0  0  0  0  0  0  0  0  0  0  0  0
    1.8258   -1.8263    0.0000 C   0  0  0  0  0  0  0  0  0  0  0  0
    2.1348   -2.7774    0.0000 C   0  0  0  0  0  0  0  0  0  0  0  0
    3.1129   -2.9853    0.0000 C   0  0  0  0  0  0  0  0  0  0  0  0
    3.4219   -3.9364    0.0000 C   0  0  0  0  0  0  0  0  0  0  0  0
    2.1349    0.7541    0.0000 C   0  0  0  0  0  0  0  0  0  0  0  0
   -2.6031   -1.5110    0.0000 C   0  0  0  0  0  0  0  0  0  0  0  0
   -3.4684   -2.0122    0.0000 C   0  0  0  0  0  0  0  0  0  0  0  0
   -3.4729   -3.0122    0.0000 C   0  0  0  0  0  0  0  0  0  0  0  0
   -2.6031   -3.5161    0.0000 C   0  0  0  0  0  0  0  0  0  0  0  0
   -1.7289   -3.0200    0.0000 C   0  0  0  0  0  0  0  0  0  0  0  0
   -2.6076   -4.5161    0.0000 S   0  0  0  0  0  0  0  0  0  0  0  0
   -1.6077   -4.5206    0.0000 O   0  0  0  0  0  0  0  0  0  0  0  0
   -3.6076   -4.5116    0.0000 O   0  0  0  0  0  0  0  0  0  0  0  0
   -2.6121   -5.5161    0.0000 N   0  0  0  0  0  0  0  0  0  0  0  0
   -3.4818   -6.0197    0.0000 C   0  0  0  0  0  0  0  0  0  0  0  0
   -3.4863   -7.0248    0.0000 C   0  0  0  0  0  0  0  0  0  0  0  0
   -2.6212   -7.5263    0.0000 N   0  0  0  0  0  0  0  0  0  0  0  0
   -1.7516   -7.0326    0.0000 C   0  0  0  0  0  0  0  0  0  0  0  0
   -1.7470   -6.0275    0.0000 C   0  0  0  0  0  0  0  0  0  0  0  0
   -2.6257   -8.5263    0.0000 C   0  0  0  0  0  0  0  0  0  0  0  0
   -2.6030   -0.5110    0.0000 O   0  0  0  0  0  0  0  0  0  0  0  0
   -3.4690   -0.0109    0.0000 C   0  0  0  0  0  0  0  0  0  0  0  0
   -3.4689    0.9891    0.0000 C   0  0  0  0  0  0  0  0  0  0  0  0
  1 20  2  0  0  0  0
  1  2  1  0  0  0  0
  2  8  1  0  0  0  0
  2  3  2  0  0  0  0
  3  4  1  0  0  0  0
  4 11  1  0  0  0  0
  4  5  2  0  0  0  0
  5  6  1  0  0  0  0
  6  7  2  0  0  0  0
  6  8  1  0  0  0  0
  5  9  1  0  0  0  0
  9 10  1  0  0  0  0
 10 11  2  0  0  0  0
 11 12  1  0  0  0  0
 12 13  1  0  0  0  0
 13 14  1  0  0  0  0
  9 15  1  0  0  0  0
  1 16  1  0  0  0  0
 16 17  2  0  0  0  0
 17 18  1  0  0  0  0
 18 19  2  0  0  0  0
 19 20  1  0  0  0  0
 19 21  1  0  0  0  0
 21 22  2  0  0  0  0
 21 23  2  0  0  0  0
 21 24  1  0  0  0  0
 24 29  1  0  0  0  0
 24 25  1  0  0  0  0
 25 26  1  0  0  0  0
 26 27  1  0  0  0  0
 27 28  1  0  0  0  0
 28 29  1  0  0  0  0
 27 30  1  0  0  0  0
 16 31  1  0  0  0  0
 31 32  1  0  0  0  0
 32 33  1  0  0  0  0
M  END
>  <Name>
Sildenafil

>  <CAS #>
139755-83-2

>  <human Clearance (mL/min/kg)>
9.0

>  <Primary mechanism (metabolic, biliary or renal)>
metabolic

>  <seqId>
829.0

>  <Code (mechanism and clearance degree index)>
M1

>  < Five M1 and R1 test groups>
M1_3

>  <formamide>
0

>  <prodrug phosphates>
0

>  <VolSurf_V>
1015.0

>  <VolSurf_S>
695.418

>  <VolSurf_R>
1.45955

>  <VolSurf_G>
1.69893

>  <VolSurf_IW1>
0.0343617

>  <VolSurf_IW2>
0.0869857

>  <VolSurf_IW3>
0.23389

>  <VolSurf_IW4>
0.65459

>  <VolSurf_ID1>
0.0196922

>  <VolSurf_ID2>
0.0956161

>  <VolSurf_ID3>
0.143968

>  <VolSurf_ID4>
0.188751

>  <VolSurf_HL1>
3.12694

>  <VolSurf_HL2>
1.70213

>  <VolSurf_A>
1.07688

>  <VolSurf_CP>
0.55505

>  <VolSurf_POL>
51.559

>  <VolSurf_MW>
475.584

>  <VolSurf_FLEX>
1.7501

>  <VolSurf_FLEX_RB>
0.1591

>  <VolSurf_NCC>
1.0

>  <VolSurf_LOGP n-Oct>
1.58

>  <VolSurf_LOGP c-Hex>
-1.154

>  <VolSurf_PSA>
125.382

>  <VolSurf_HSA>
570.035

>  <VolSurf_PSAR>
0.180298

>  <VolSurf_PHSAR>
0.219956

>  <VolSurf_LgD5>
-1.0189

>  <VolSurf_LgD6>
-0.154681

>  <VolSurf_LgD7>
0.765166

>  <VolSurf_LgD7.5>
1.13575

>  <VolSurf_LgD8>
1.36175

>  <VolSurf_LgD9>
1.26909

>  <VolSurf_LgD10>
0.543194

>  <VolSurf_AUS7.4>
1.50019

>  <VolSurf_%FU4>
0.018026

>  <VolSurf_%FU5>
0.180014

>  <VolSurf_%FU6>
1.77146

>  <VolSurf_%FU7>
15.2558

>  <VolSurf_%FU8>
60.4731

>  <VolSurf_%FU9>
48.8578

>  <VolSurf_%FU10>
9.15869

>  <ID>
394

>  <MOKAID>
395

>  <Clearance Route>
possible billary

>  <PC1>
0.182754

>  <PC2>
-2.3284599999999998

$$$$
Sinitrodil
  -OEChem-08301611272D

 17 18  0     0  0  0  0  0  0999 V2000
    4.3408   -0.4978    0.0000 C   0  0  0  0  0  0  0  0  0  0  0  0
    4.3407   -1.4978    0.0000 C   0  0  0  0  0  0  0  0  0  0  0  0
    5.2067   -1.9978    0.0000 O   0  0  0  0  0  0  0  0  0  0  0  0
    5.2066   -2.9978    0.0000 N   0  0  0  0  0  0  0  0  0  0  0  0
    6.0726   -3.4979    0.0000 O   0  0  0  0  0  0  0  0  0  0  0  0
    4.3406   -3.4978    0.0000 O   0  0  0  0  0  0  0  0  0  0  0  0
    3.4748    0.0023    0.0000 N   0  0  0  0  0  0  0  0  0  0  0  0
    3.4735    1.0079    0.0000 C   0  0  0  0  0  0  0  0  0  0  0  0
    2.6012    1.5123    0.0000 O   0  0  0  0  0  0  0  0  0  0  0  0
    1.7358    1.0056    0.0000 C   0  0  0  0  0  0  0  0  0  0  0  0
    0.8679    1.5135    0.0000 C   0  0  0  0  0  0  0  0  0  0  0  0
    0.0000    1.0056    0.0000 C   0  0  0  0  0  0  0  0  0  0  0  0
    0.0000    0.0000    0.0000 C   0  0  0  0  0  0  0  0  0  0  0  0
    0.8679   -0.4977    0.0000 C   0  0  0  0  0  0  0  0  0  0  0  0
    1.7371    0.0000    0.0000 C   0  0  0  0  0  0  0  0  0  0  0  0
    2.6038   -0.4989    0.0000 C   0  0  0  0  0  0  0  0  0  0  0  0
    2.6037   -1.4989    0.0000 O   0  0  0  0  0  0  0  0  0  0  0  0
  1  2  1  0  0  0  0
  2  3  1  0  0  0  0
  3  4  1  0  0  0  0
  4  5  2  0  0  0  0
  4  6  2  0  0  0  0
  1  7  1  0  0  0  0
  7 16  1  0  0  0  0
  7  8  1  0  0  0  0
  8  9  1  0  0  0  0
  9 10  1  0  0  0  0
 10 15  2  0  0  0  0
 10 11  1  0  0  0  0
 11 12  2  0  0  0  0
 12 13  1  0  0  0  0
 13 14  2  0  0  0  0
 14 15  1  0  0  0  0
 15 16  1  0  0  0  0
 16 17  2  0  0  0  0
M  END
>  <Name>
Sinitrodil

>  <CAS #>
143248-63-9

>  <human Clearance (mL/min/kg)>
29.59

>  <Primary mechanism (metabolic, biliary or renal)>
metabolic

>  <seqId>
831.0

>  <Code (mechanism and clearance degree index)>
M1

>  < Five M1 and R1 test groups>
M1_2

>  <formamide>
0

>  <prodrug phosphates>
0

>  <VolSurf_V>
523.125

>  <VolSurf_S>
371.804

>  <VolSurf_R>
1.40699

>  <VolSurf_G>
1.28866

>  <VolSurf_IW1>
0.0868291

>  <VolSurf_IW2>
0.222398

>  <VolSurf_IW3>
0.53874

>  <VolSurf_IW4>
1.41981

>  <VolSurf_ID1>
0.111974

>  <VolSurf_ID2>
0.155527

>  <VolSurf_ID3>
0.234147

>  <VolSurf_ID4>
0.294145

>  <VolSurf_HL1>
1.42405

>  <VolSurf_HL2>
0.848649

>  <VolSurf_A>
3.47848

>  <VolSurf_CP>
0.941813

>  <VolSurf_POL>
21.523

>  <VolSurf_MW>
238.197

>  <VolSurf_FLEX>
1.43391

>  <VolSurf_FLEX_RB>
0.358476

>  <VolSurf_NCC>
0.0

>  <VolSurf_LOGP n-Oct>
1.842

>  <VolSurf_LOGP c-Hex>
0.268

>  <VolSurf_PSA>
77.89

>  <VolSurf_HSA>
293.914

>  <VolSurf_PSAR>
0.209492

>  <VolSurf_PHSAR>
0.26501

>  <VolSurf_LgD5>
1.842

>  <VolSurf_LgD6>
1.842

>  <VolSurf_LgD7>
1.842

>  <VolSurf_LgD7.5>
1.842

>  <VolSurf_LgD8>
1.842

>  <VolSurf_LgD9>
1.842

>  <VolSurf_LgD10>
1.842

>  <VolSurf_AUS7.4>
2.0

>  <VolSurf_%FU4>
43.9043

>  <VolSurf_%FU5>
88.6707

>  <VolSurf_%FU6>
98.7384

>  <VolSurf_%FU7>
99.8724

>  <VolSurf_%FU8>
99.9872

>  <VolSurf_%FU9>
99.9987

>  <VolSurf_%FU10>
99.9999

>  <ID>
395

>  <MOKAID>
396

>  <Clearance Route>
metabolic

>  <PC1>
3.17123

>  <PC2>
2.7366099999999998

$$$$
Sisomicin
  -OEChem-08301611272D

 31 33  0     1  0  0  0  0  0999 V2000
   -0.8660   -1.5000    0.0000 C   0  0  0  0  0  0  0  0  0  0  0  0
    0.0000   -1.0000    0.0000 N   0  0  0  0  0  0  0  0  0  0  0  0
    0.0000    0.0000    0.0000 C   0  0  2  0  0  0  0  0  0  0  0  0
    0.8675    0.4975    0.0000 C   0  0  1  0  0  0  0  0  0  0  0  0
    1.7328   -0.0038    0.0000 O   0  0  0  0  0  0  0  0  0  0  0  0
    0.8675    1.5027    0.0000 C   0  0  1  0  0  0  0  0  0  0  0  0
    1.7350    2.0001    0.0000 O   0  0  0  0  0  0  0  0  0  0  0  0
    1.7379    3.0001    0.0000 C   0  0  1  0  0  0  0  0  0  0  0  0
    2.6114    3.4976    0.0000 C   0  0  2  0  0  0  0  0  0  0  0  0
    3.4752    2.9937    0.0000 N   0  0  0  0  0  0  0  0  0  0  0  0
    2.6144    4.4976    0.0000 C   0  0  0  0  0  0  0  0  0  0  0  0
    1.7528    5.0052    0.0000 C   0  0  2  0  0  0  0  0  0  0  0  0
    1.7602    6.0052    0.0000 N   0  0  0  0  0  0  0  0  0  0  0  0
    0.8793    4.5078    0.0000 C   0  0  1  0  0  0  0  0  0  0  0  0
    0.0178    5.0154    0.0000 O   0  0  0  0  0  0  0  0  0  0  0  0
   -0.8527    4.5231    0.0000 C   0  0  1  0  0  0  0  0  0  0  0  0
   -0.8586    3.5180    0.0000 O   0  0  0  0  0  0  0  0  0  0  0  0
   -1.7378    3.0309    0.0000 C   0  0  0  0  0  0  0  0  0  0  0  0
   -2.6024    3.5437    0.0000 C   0  0  0  0  0  0  0  0  0  0  0  0
   -2.5877    4.5437    0.0000 C   0  0  0  0  0  0  0  0  0  0  0  0
   -1.7172    5.0360    0.0000 C   0  0  1  0  0  0  0  0  0  0  0  0
   -1.7068    6.0359    0.0000 N   0  0  0  0  0  0  0  0  0  0  0  0
   -1.7526    2.0310    0.0000 C   0  0  0  0  0  0  0  0  0  0  0  0
   -2.6259    1.5438    0.0000 N   0  0  0  0  0  0  0  0  0  0  0  0
    0.8675    3.5027    0.0000 C   0  0  2  0  0  0  0  0  0  0  0  0
   -0.0015    3.0078    0.0000 O   0  0  0  0  0  0  0  0  0  0  0  0
   -0.0000    2.0104    0.0000 O   0  0  0  0  0  0  0  0  0  0  0  0
   -0.8675    1.5027    0.0000 C   0  0  0  0  0  0  0  0  0  0  0  0
   -0.8675    0.4975    0.0000 C   0  0  1  0  0  0  0  0  0  0  0  0
   -1.2077   -0.4429    0.0000 C   0  0  0  0  0  0  0  0  0  0  0  0
   -1.8525    0.6702    0.0000 O   0  0  0  0  0  0  0  0  0  0  0  0
  1  2  1  0  0  0  0
  3  2  1  1  0  0  0
  3 29  1  0  0  0  0
  3  4  1  0  0  0  0
  4  5  1  6  0  0  0
  4  6  1  0  0  0  0
  6  7  1  6  0  0  0
  8  7  1  6  0  0  0
  8 25  1  0  0  0  0
  8  9  1  0  0  0  0
  9 10  1  1  0  0  0
  9 11  1  0  0  0  0
 11 12  1  0  0  0  0
 12 13  1  1  0  0  0
 12 14  1  0  0  0  0
 14 15  1  6  0  0  0
 16 15  1  1  0  0  0
 16 21  1  0  0  0  0
 16 17  1  0  0  0  0
 17 18  1  0  0  0  0
 18 19  2  0  0  0  0
 19 20  1  0  0  0  0
 20 21  1  0  0  0  0
 21 22  1  1  0  0  0
 18 23  1  0  0  0  0
 23 24  1  0  0  0  0
 14 25  1  0  0  0  0
 25 26  1  1  0  0  0
  6 27  1  0  0  0  0
 27 28  1  0  0  0  0
 28 29  1  0  0  0  0
 29 30  1  0  0  0  0
 29 31  1  1  0  0  0
M  END
>  <Name>
Sisomicin

>  <CAS #>
32385-11-8

>  <human Clearance (mL/min/kg)>
1.0

>  <Primary mechanism (metabolic, biliary or renal)>
renal

>  <seqId>
832.0

>  <Code (mechanism and clearance degree index)>
R1

>  < Five M1 and R1 test groups>
R1_1

>  <formamide>
0

>  <prodrug phosphates>
0

>  <VolSurf_V>
892.25

>  <VolSurf_S>
604.837

>  <VolSurf_R>
1.47519

>  <VolSurf_G>
1.56764

>  <VolSurf_IW1>
0.0572118

>  <VolSurf_IW2>
0.0899193

>  <VolSurf_IW3>
0.15591

>  <VolSurf_IW4>
0.231412

>  <VolSurf_ID1>
0.0360659

>  <VolSurf_ID2>
0.245006

>  <VolSurf_ID3>
0.283951

>  <VolSurf_ID4>
0.0

>  <VolSurf_HL1>
562.75

>  <VolSurf_HL2>
290.5

>  <VolSurf_A>
6.05504

>  <VolSurf_CP>
0.00119277

>  <VolSurf_POL>
51.108

>  <VolSurf_MW>
450.55

>  <VolSurf_FLEX>
2.00138

>  <VolSurf_FLEX_RB>
0.133425

>  <VolSurf_NCC>
3.0

>  <VolSurf_LOGP n-Oct>
-4.532

>  <VolSurf_LOGP c-Hex>
-3.369

>  <VolSurf_PSA>
254.55

>  <VolSurf_HSA>
350.287

>  <VolSurf_PSAR>
0.420857

>  <VolSurf_PHSAR>
0.726689

>  <VolSurf_LgD5>
-9.0

>  <VolSurf_LgD6>
-9.0

>  <VolSurf_LgD7>
-9.0

>  <VolSurf_LgD7.5>
-8.08605

>  <VolSurf_LgD8>
-6.63588

>  <VolSurf_LgD9>
-4.99445

>  <VolSurf_LgD10>
-4.59035

>  <VolSurf_AUS7.4>
0.0

>  <VolSurf_%FU4>
1.86615E-17

>  <VolSurf_%FU5>
1.48919E-12

>  <VolSurf_%FU6>
4.81907E-8

>  <VolSurf_%FU7>
4.70666E-4

>  <VolSurf_%FU8>
0.780926

>  <VolSurf_%FU9>
34.4514

>  <VolSurf_%FU10>
87.4214

>  <ID>
396

>  <MOKAID>
397

>  <Clearance Route>
renal

>  <PC1>
-7.58732

>  <PC2>
0.106948

$$$$
Sitafloxacin
  -OEChem-08301611272D

 28 32  0     1  0  0  0  0  0999 V2000
   -3.4453    1.7307    0.0000 N   0  0  0  0  0  0  0  0  0  0  0  0
   -2.4511    1.8381    0.0000 C   0  0  2  0  0  0  0  0  0  0  0  0
   -1.7798    1.0968    0.0000 C   0  0  0  0  0  0  0  0  0  0  0  0
   -0.8675    1.5063    0.0000 N   0  0  3  0  0  0  0  0  0  0  0  0
   -0.9749    2.5005    0.0000 C   0  0  0  0  0  0  0  0  0  0  0  0
   -1.9537    2.7056    0.0000 C   0  0  0  0  0  0  0  0  0  0  0  0
   -1.8582    3.7033    0.0000 C   0  0  0  0  0  0  0  0  0  0  0  0
   -2.7700    3.2871    0.0000 C   0  0  0  0  0  0  0  0  0  0  0  0
    0.0000    1.0089    0.0000 C   0  0  0  0  0  0  0  0  0  0  0  0
    0.0000    0.0000    0.0000 C   0  0  0  0  0  0  0  0  0  0  0  0
   -0.8653   -0.5013    0.0000 F   0  0  0  0  0  0  0  0  0  0  0  0
    0.8707   -0.4993    0.0000 C   0  0  0  0  0  0  0  0  0  0  0  0
    1.7371    0.0000    0.0000 C   0  0  0  0  0  0  0  0  0  0  0  0
    2.6039   -0.5053    0.0000 C   0  0  0  0  0  0  0  0  0  0  0  0
    2.5983   -1.5053    0.0000 O   0  0  0  0  0  0  0  0  0  0  0  0
    3.4805   -0.0073    0.0000 C   0  0  0  0  0  0  0  0  0  0  0  0
    3.4848    1.0014    0.0000 C   0  0  0  0  0  0  0  0  0  0  0  0
    2.6125    1.5125    0.0000 N   0  0  0  0  0  0  0  0  0  0  0  0
    2.6154    2.5125    0.0000 C   0  0  2  0  0  0  0  0  0  0  0  0
    3.1179    3.3792    0.0000 C   0  0  0  0  0  0  0  0  0  0  0  0
    2.1179    3.3821    0.0000 C   0  0  2  0  0  0  0  0  0  0  0  0
    1.2537    3.8851    0.0000 F   0  0  0  0  0  0  0  0  0  0  0  0
    1.7414    1.0089    0.0000 C   0  0  0  0  0  0  0  0  0  0  0  0
    0.8707    1.5185    0.0000 C   0  0  0  0  0  0  0  0  0  0  0  0
    0.8707    2.5185    0.0000 Cl  0  0  0  0  0  0  0  0  0  0  0  0
    4.3437   -0.5122    0.0000 C   0  0  0  0  0  0  0  0  0  0  0  0
    4.3381   -1.5121    0.0000 O   0  0  0  0  0  0  0  0  0  0  0  0
    5.2125   -0.0170    0.0000 O   0  0  0  0  0  0  0  0  0  0  0  0
  2  1  1  1  0  0  0
  2  6  1  0  0  0  0
  2  3  1  0  0  0  0
  3  4  1  0  0  0  0
  4  5  1  0  0  0  0
  5  6  1  0  0  0  0
  6  8  1  0  0  0  0
  6  7  1  0  0  0  0
  7  8  1  0  0  0  0
  4  9  1  0  0  0  0
  9 24  2  0  0  0  0
  9 10  1  0  0  0  0
 10 11  1  0  0  0  0
 10 12  2  0  0  0  0
 12 13  1  0  0  0  0
 13 23  2  0  0  0  0
 13 14  1  0  0  0  0
 14 15  2  0  0  0  0
 14 16  1  0  0  0  0
 16 17  2  0  0  0  0
 17 18  1  0  0  0  0
 19 18  1  1  0  0  0
 19 21  1  0  0  0  0
 19 20  1  0  0  0  0
 20 21  1  0  0  0  0
 21 22  1  1  0  0  0
 18 23  1  0  0  0  0
 23 24  1  0  0  0  0
 24 25  1  0  0  0  0
 16 26  1  0  0  0  0
 26 27  2  0  0  0  0
 26 28  1  0  0  0  0
M  END
>  <Name>
Sitafloxacin

>  <CAS #>
127254-12-0

>  <human Clearance (mL/min/kg)>
3.7

>  <Primary mechanism (metabolic, biliary or renal)>
renal

>  <seqId>
833.0

>  <Code (mechanism and clearance degree index)>
R1

>  < Five M1 and R1 test groups>
R1_1

>  <formamide>
0

>  <prodrug phosphates>
0

>  <VolSurf_V>
773.25

>  <VolSurf_S>
515.755

>  <VolSurf_R>
1.49926

>  <VolSurf_G>
1.42436

>  <VolSurf_IW1>
0.101482

>  <VolSurf_IW2>
0.215844

>  <VolSurf_IW3>
0.465998

>  <VolSurf_IW4>
0.891032

>  <VolSurf_ID1>
0.074907

>  <VolSurf_ID2>
0.141862

>  <VolSurf_ID3>
0.203033

>  <VolSurf_ID4>
0.260295

>  <VolSurf_HL1>
5.34448

>  <VolSurf_HL2>
4.03315

>  <VolSurf_A>
4.9889

>  <VolSurf_CP>
0.281623

>  <VolSurf_POL>
37.986

>  <VolSurf_MW>
409.814

>  <VolSurf_FLEX>
0.689959

>  <VolSurf_FLEX_RB>
0.17249

>  <VolSurf_NCC>
2.0

>  <VolSurf_LOGP n-Oct>
2.544

>  <VolSurf_LOGP c-Hex>
-0.312

>  <VolSurf_PSA>
114.62

>  <VolSurf_HSA>
401.135

>  <VolSurf_PSAR>
0.222237

>  <VolSurf_PHSAR>
0.285739

>  <VolSurf_LgD5>
-0.305526

>  <VolSurf_LgD6>
0.125553

>  <VolSurf_LgD7>
0.252344

>  <VolSurf_LgD7.5>
0.263987

>  <VolSurf_LgD8>
0.267026

>  <VolSurf_LgD9>
0.258172

>  <VolSurf_LgD10>
0.170526

>  <VolSurf_AUS7.4>
0.0

>  <VolSurf_%FU4>
0.0

>  <VolSurf_%FU5>
0.0

>  <VolSurf_%FU6>
0.0

>  <VolSurf_%FU7>
0.0

>  <VolSurf_%FU8>
0.0

>  <VolSurf_%FU9>
0.0

>  <VolSurf_%FU10>
0.0

>  <ID>
397

>  <MOKAID>
398

>  <Clearance Route>
uncertain

>  <PC1>
-0.178554

>  <PC2>
0.863216

$$$$
Sitagliptin
  -OEChem-08301611272D

 28 30  0     1  0  0  0  0  0999 V2000
   -2.6024    1.4924    0.0000 N   0  0  0  0  0  0  0  0  0  0  0  0
   -2.5995    0.4924    0.0000 C   0  0  1  0  0  0  0  0  0  0  0  0
   -1.7320   -0.0050    0.0000 C   0  0  0  0  0  0  0  0  0  0  0  0
   -0.8675    0.4975    0.0000 C   0  0  0  0  0  0  0  0  0  0  0  0
   -0.8704    1.4975    0.0000 O   0  0  0  0  0  0  0  0  0  0  0  0
    0.0000    0.0000    0.0000 N   0  0  0  0  0  0  0  0  0  0  0  0
   -0.0000   -1.0058    0.0000 C   0  0  0  0  0  0  0  0  0  0  0  0
    0.8680   -1.5037    0.0000 C   0  0  0  0  0  0  0  0  0  0  0  0
    1.7360   -1.0071    0.0000 N   0  0  0  0  0  0  0  0  0  0  0  0
    1.7360   -0.0000    0.0000 C   0  0  0  0  0  0  0  0  0  0  0  0
    0.8680    0.5079    0.0000 C   0  0  0  0  0  0  0  0  0  0  0  0
    2.6938    0.3110    0.0000 N   0  0  0  0  0  0  0  0  0  0  0  0
    3.2858   -0.5036    0.0000 N   0  0  0  0  0  0  0  0  0  0  0  0
    2.6938   -1.3184    0.0000 C   0  0  0  0  0  0  0  0  0  0  0  0
    3.0028   -2.2695    0.0000 C   0  0  0  0  0  0  0  0  0  0  0  0
    3.9538   -1.9605    0.0000 F   0  0  0  0  0  0  0  0  0  0  0  0
    2.0517   -2.5784    0.0000 F   0  0  0  0  0  0  0  0  0  0  0  0
    3.3117   -3.2205    0.0000 F   0  0  0  0  0  0  0  0  0  0  0  0
   -3.4641   -0.0101    0.0000 C   0  0  0  0  0  0  0  0  0  0  0  0
   -4.3316    0.4874    0.0000 C   0  0  0  0  0  0  0  0  0  0  0  0
   -4.3359    1.4874    0.0000 C   0  0  0  0  0  0  0  0  0  0  0  0
   -5.2013    1.9887    0.0000 C   0  0  0  0  0  0  0  0  0  0  0  0
   -5.2013    2.9887    0.0000 F   0  0  0  0  0  0  0  0  0  0  0  0
   -6.0710    1.4848    0.0000 C   0  0  0  0  0  0  0  0  0  0  0  0
   -6.9363    1.9861    0.0000 F   0  0  0  0  0  0  0  0  0  0  0  0
   -6.0755    0.4797    0.0000 C   0  0  0  0  0  0  0  0  0  0  0  0
   -5.2014   -0.0165    0.0000 C   0  0  0  0  0  0  0  0  0  0  0  0
   -5.1969   -1.0165    0.0000 F   0  0  0  0  0  0  0  0  0  0  0  0
  2  1  1  1  0  0  0
  2  3  1  0  0  0  0
  3  4  1  0  0  0  0
  4  5  2  0  0  0  0
  4  6  1  0  0  0  0
  6 11  1  0  0  0  0
  6  7  1  0  0  0  0
  7  8  1  0  0  0  0
  8  9  1  0  0  0  0
  9 14  1  0  0  0  0
  9 10  1  0  0  0  0
 10 11  1  0  0  0  0
 10 12  2  0  0  0  0
 12 13  1  0  0  0  0
 13 14  2  0  0  0  0
 14 15  1  0  0  0  0
 15 16  1  0  0  0  0
 15 17  1  0  0  0  0
 15 18  1  0  0  0  0
  2 19  1  0  0  0  0
 19 20  1  0  0  0  0
 20 27  2  0  0  0  0
 20 21  1  0  0  0  0
 21 22  2  0  0  0  0
 22 23  1  0  0  0  0
 22 24  1  0  0  0  0
 24 25  1  0  0  0  0
 24 26  2  0  0  0  0
 26 27  1  0  0  0  0
 27 28  1  0  0  0  0
M  END
>  <Name>
Sitagliptin

>  <CAS #>
486460-32-6

>  <human Clearance (mL/min/kg)>
6.0

>  <Primary mechanism (metabolic, biliary or renal)>
renal

>  <seqId>
834.0

>  <Code (mechanism and clearance degree index)>
R1

>  < Five M1 and R1 test groups>
R1_5

>  <formamide>
0

>  <prodrug phosphates>
0

>  <VolSurf_V>
740.625

>  <VolSurf_S>
524.406

>  <VolSurf_R>
1.41231

>  <VolSurf_G>
1.52467

>  <VolSurf_IW1>
0.062579

>  <VolSurf_IW2>
0.124032

>  <VolSurf_IW3>
0.429346

>  <VolSurf_IW4>
0.713368

>  <VolSurf_ID1>
0.0560489

>  <VolSurf_ID2>
0.0802054

>  <VolSurf_ID3>
0.10281

>  <VolSurf_ID4>
0.176542

>  <VolSurf_HL1>
6.55024

>  <VolSurf_HL2>
4.05426

>  <VolSurf_A>
3.58742

>  <VolSurf_CP>
0.386337

>  <VolSurf_POL>
34.581

>  <VolSurf_MW>
408.322

>  <VolSurf_FLEX>
3.03785

>  <VolSurf_FLEX_RB>
0.433979

>  <VolSurf_NCC>
1.0

>  <VolSurf_LOGP n-Oct>
0.460001

>  <VolSurf_LOGP c-Hex>
0.667

>  <VolSurf_PSA>
96.86

>  <VolSurf_HSA>
427.546

>  <VolSurf_PSAR>
0.184704

>  <VolSurf_PHSAR>
0.226549

>  <VolSurf_LgD5>
-2.56827

>  <VolSurf_LgD6>
-1.7276

>  <VolSurf_LgD7>
-0.770428

>  <VolSurf_LgD7.5>
-0.323685

>  <VolSurf_LgD8>
0.0438201

>  <VolSurf_LgD9>
0.395244

>  <VolSurf_LgD10>
0.453073

>  <VolSurf_AUS7.4>
1.15249

>  <VolSurf_%FU4>
0.00619429

>  <VolSurf_%FU5>
0.0621066

>  <VolSurf_%FU6>
0.61781

>  <VolSurf_%FU7>
5.85285

>  <VolSurf_%FU8>
38.3353

>  <VolSurf_%FU9>
86.1433

>  <VolSurf_%FU10>
98.4169

>  <ID>
398

>  <MOKAID>
399

>  <Clearance Route>
possible billary

>  <PC1>
0.193727

>  <PC2>
-0.221002

$$$$
Sotalol
  -OEChem-08301611272D

 18 18  0     1  0  0  0  0  0999 V2000
    5.1991    1.9899    0.0000 C   0  0  0  0  0  0  0  0  0  0  0  0
    4.3316    1.4925    0.0000 C   0  0  0  0  0  0  0  0  0  0  0  0
    4.3286    0.4925    0.0000 C   0  0  0  0  0  0  0  0  0  0  0  0
    3.4670    1.9950    0.0000 N   0  0  0  0  0  0  0  0  0  0  0  0
    2.5995    1.4976    0.0000 C   0  0  0  0  0  0  0  0  0  0  0  0
    1.7350    2.0001    0.0000 C   0  0  3  0  0  0  0  0  0  0  0  0
    1.7379    3.0001    0.0000 O   0  0  0  0  0  0  0  0  0  0  0  0
    0.8675    1.5027    0.0000 C   0  0  0  0  0  0  0  0  0  0  0  0
    0.8675    0.4975    0.0000 C   0  0  0  0  0  0  0  0  0  0  0  0
    0.0000    0.0000    0.0000 C   0  0  0  0  0  0  0  0  0  0  0  0
   -0.8675    0.4975    0.0000 C   0  0  0  0  0  0  0  0  0  0  0  0
   -1.7328   -0.0038    0.0000 N   0  0  0  0  0  0  0  0  0  0  0  0
   -1.7313   -1.0038    0.0000 S   0  0  0  0  0  0  0  0  0  0  0  0
   -0.7313   -1.0023    0.0000 O   0  0  0  0  0  0  0  0  0  0  0  0
   -2.7313   -1.0052    0.0000 O   0  0  0  0  0  0  0  0  0  0  0  0
   -1.7299   -2.0038    0.0000 C   0  0  0  0  0  0  0  0  0  0  0  0
   -0.8675    1.5027    0.0000 C   0  0  0  0  0  0  0  0  0  0  0  0
    0.0000    2.0104    0.0000 C   0  0  0  0  0  0  0  0  0  0  0  0
  1  2  1  0  0  0  0
  2  3  1  0  0  0  0
  2  4  1  0  0  0  0
  4  5  1  0  0  0  0
  5  6  1  0  0  0  0
  6  7  1  0  0  0  0
  6  8  1  0  0  0  0
  8 18  2  0  0  0  0
  8  9  1  0  0  0  0
  9 10  2  0  0  0  0
 10 11  1  0  0  0  0
 11 12  1  0  0  0  0
 12 13  1  0  0  0  0
 13 14  2  0  0  0  0
 13 15  2  0  0  0  0
 13 16  1  0  0  0  0
 11 17  2  0  0  0  0
 17 18  1  0  0  0  0
M  END
>  <Name>
Sotalol

>  <CAS #>
3930-20-9

>  <human Clearance (mL/min/kg)>
2.0

>  <Primary mechanism (metabolic, biliary or renal)>
renal

>  <seqId>
837.0

>  <Code (mechanism and clearance degree index)>
R1

>  < Five M1 and R1 test groups>
R1_5

>  <formamide>
0

>  <prodrug phosphates>
0

>  <VolSurf_V>
635.375

>  <VolSurf_S>
455.848

>  <VolSurf_R>
1.39383

>  <VolSurf_G>
1.44037

>  <VolSurf_IW1>
0.0760603

>  <VolSurf_IW2>
0.17981

>  <VolSurf_IW3>
0.372524

>  <VolSurf_IW4>
1.38937

>  <VolSurf_ID1>
0.0385959

>  <VolSurf_ID2>
0.0863367

>  <VolSurf_ID3>
0.283032

>  <VolSurf_ID4>
0.409205

>  <VolSurf_HL1>
5.62791

>  <VolSurf_HL2>
3.5

>  <VolSurf_A>
2.82199

>  <VolSurf_CP>
0.338837

>  <VolSurf_POL>
32.106

>  <VolSurf_MW>
273.372

>  <VolSurf_FLEX>
1.70214

>  <VolSurf_FLEX_RB>
0.170214

>  <VolSurf_NCC>
1.0

>  <VolSurf_LOGP n-Oct>
0.429

>  <VolSurf_LOGP c-Hex>
-0.557

>  <VolSurf_PSA>
98.0025

>  <VolSurf_HSA>
357.846

>  <VolSurf_PSAR>
0.214989

>  <VolSurf_PHSAR>
0.273868

>  <VolSurf_LgD5>
-2.95085

>  <VolSurf_LgD6>
-2.58796

>  <VolSurf_LgD7>
-1.76644

>  <VolSurf_LgD7.5>
-1.28891

>  <VolSurf_LgD8>
-0.811942

>  <VolSurf_LgD9>
-0.0133865

>  <VolSurf_LgD10>
0.0543956

>  <VolSurf_AUS7.4>
0.342206

>  <VolSurf_%FU4>
6.05829E-4

>  <VolSurf_%FU5>
0.00605796

>  <VolSurf_%FU6>
0.0605466

>  <VolSurf_%FU7>
0.60218

>  <VolSurf_%FU8>
5.70833

>  <VolSurf_%FU9>
36.0862

>  <VolSurf_%FU10>
42.1895

>  <ID>
399

>  <MOKAID>
400

>  <Clearance Route>
uncertain

>  <PC1>
-0.7785489999999999

>  <PC2>
1.67888

$$$$
Sparfosic acid
  -OEChem-08301611272D

 16 15  0     1  0  0  0  0  0999 V2000
    0.0000    0.0000    0.0000 N   0  0  0  0  0  0  0  0  0  0  0  0
    1.0000    0.0000    0.0000 C   0  0  0  0  0  0  0  0  0  0  0  0
    1.5000    0.8660    0.0000 C   0  0  0  0  0  0  0  0  0  0  0  0
    2.5000    0.8660    0.0000 P   0  0  0  0  0  0  0  0  0  0  0  0
    3.5000    0.8660    0.0000 O   0  0  0  0  0  0  0  0  0  0  0  0
    2.5000    1.8660    0.0000 O   0  0  0  0  0  0  0  0  0  0  0  0
    2.5000   -0.1340    0.0000 O   0  0  0  0  0  0  0  0  0  0  0  0
    1.5000   -0.8660    0.0000 O   0  0  0  0  0  0  0  0  0  0  0  0
   -0.5000   -0.8660    0.0000 C   0  0  1  0  0  0  0  0  0  0  0  0
   -1.5000   -0.8660    0.0000 C   0  0  0  0  0  0  0  0  0  0  0  0
   -2.0000    0.0000    0.0000 C   0  0  0  0  0  0  0  0  0  0  0  0
   -1.5000    0.8660    0.0000 O   0  0  0  0  0  0  0  0  0  0  0  0
   -3.0000   -0.0000    0.0000 O   0  0  0  0  0  0  0  0  0  0  0  0
    0.0000   -1.7321    0.0000 C   0  0  0  0  0  0  0  0  0  0  0  0
    1.0000   -1.7321    0.0000 O   0  0  0  0  0  0  0  0  0  0  0  0
   -0.5000   -2.5981    0.0000 O   0  0  0  0  0  0  0  0  0  0  0  0
  1  2  1  0  0  0  0
  2  3  1  0  0  0  0
  3  4  1  0  0  0  0
  4  5  2  0  0  0  0
  4  6  1  0  0  0  0
  4  7  1  0  0  0  0
  2  8  2  0  0  0  0
  1  9  1  0  0  0  0
  9 10  1  0  0  0  0
 10 11  1  0  0  0  0
 11 12  2  0  0  0  0
 11 13  1  0  0  0  0
  9 14  1  6  0  0  0
 14 15  2  0  0  0  0
 14 16  1  0  0  0  0
M  END
>  <Name>
Sparfosic acid

>  <CAS #>
51321-79-0

>  <human Clearance (mL/min/kg)>
1.22

>  <Primary mechanism (metabolic, biliary or renal)>
renal

>  <seqId>
839.0

>  <Code (mechanism and clearance degree index)>
R1

>  < Five M1 and R1 test groups>
R1_4

>  <formamide>
0

>  <prodrug phosphates>
0

>  <VolSurf_V>
486.625

>  <VolSurf_S>
368.87

>  <VolSurf_R>
1.31923

>  <VolSurf_G>
1.36896

>  <VolSurf_IW1>
0.0416703

>  <VolSurf_IW2>
0.0516644

>  <VolSurf_IW3>
0.138247

>  <VolSurf_IW4>
0.510469

>  <VolSurf_ID1>
0.0886607

>  <VolSurf_ID2>
0.0

>  <VolSurf_ID3>
0.0

>  <VolSurf_ID4>
0.0

>  <VolSurf_HL1>
613.5

>  <VolSurf_HL2>
352.0

>  <VolSurf_A>
0.0

>  <VolSurf_CP>
0.0

>  <VolSurf_POL>
19.409

>  <VolSurf_MW>
252.095

>  <VolSurf_FLEX>
1.99504

>  <VolSurf_FLEX_RB>
0.285006

>  <VolSurf_NCC>
3.0

>  <VolSurf_LOGP n-Oct>
-2.77

>  <VolSurf_LOGP c-Hex>
-9.0

>  <VolSurf_PSA>
175.71

>  <VolSurf_HSA>
193.16

>  <VolSurf_PSAR>
0.476346

>  <VolSurf_PHSAR>
0.90966

>  <VolSurf_LgD5>
-7.2702

>  <VolSurf_LgD6>
-8.74577

>  <VolSurf_LgD7>
-9.0

>  <VolSurf_LgD7.5>
-9.0

>  <VolSurf_LgD8>
-9.0

>  <VolSurf_LgD9>
-9.0

>  <VolSurf_LgD10>
-9.0

>  <VolSurf_AUS7.4>
0.0

>  <VolSurf_%FU4>
0.378407

>  <VolSurf_%FU5>
0.00257862

>  <VolSurf_%FU6>
5.13682E-6

>  <VolSurf_%FU7>
4.7066E-9

>  <VolSurf_%FU8>
1.71659E-12

>  <VolSurf_%FU9>
2.32412E-16

>  <VolSurf_%FU10>
2.40856E-20

>  <ID>
400

>  <MOKAID>
401

>  <Clearance Route>
renal

>  <PC1>
-8.98794

>  <PC2>
3.7505699999999997

$$$$
Spectinomycin
  -OEChem-08301611272D

 26 28  0     1  0  0  0  0  0999 V2000
    0.8645   -1.5009    0.0000 C   0  0  0  0  0  0  0  0  0  0  0  0
    0.8655   -0.5009    0.0000 N   0  0  0  0  0  0  0  0  0  0  0  0
   -0.0000   -0.0000    0.0000 C   0  0  2  0  0  0  0  0  0  0  0  0
   -0.0004    1.0081    0.0000 C   0  0  2  0  0  0  0  0  0  0  0  0
    0.8659    1.5075    0.0000 O   0  0  0  0  0  0  0  0  0  0  0  0
   -0.8743    1.5146    0.0000 C   0  0  2  0  0  0  0  0  0  0  0  0
   -0.8760    2.5146    0.0000 N   0  0  0  0  0  0  0  0  0  0  0  0
   -1.7429    3.0131    0.0000 C   0  0  0  0  0  0  0  0  0  0  0  0
   -1.7423    1.0075    0.0000 C   0  0  1  0  0  0  0  0  0  0  0  0
   -2.6146    1.5120    0.0000 O   0  0  0  0  0  0  0  0  0  0  0  0
   -3.4800    1.0053    0.0000 C   0  0  2  0  0  0  0  0  0  0  0  0
   -3.4802    2.0053    0.0000 O   0  0  0  0  0  0  0  0  0  0  0  0
   -3.4787   -0.0003    0.0000 C   0  0  1  0  0  0  0  0  0  0  0  0
   -4.3479   -0.4981    0.0000 O   0  0  0  0  0  0  0  0  0  0  0  0
   -5.2158   -0.0003    0.0000 C   0  0  2  0  0  0  0  0  0  0  0  0
   -6.0811   -0.5015    0.0000 C   0  0  0  0  0  0  0  0  0  0  0  0
   -5.2158    1.0053    0.0000 C   0  0  0  0  0  0  0  0  0  0  0  0
   -4.3479    1.5131    0.0000 C   0  0  0  0  0  0  0  0  0  0  0  0
   -4.3479    2.5131    0.0000 O   0  0  0  0  0  0  0  0  0  0  0  0
   -2.6120   -0.4992    0.0000 O   0  0  0  0  0  0  0  0  0  0  0  0
   -1.7420   -0.0006    0.0000 C   0  0  2  0  0  0  0  0  0  0  0  0
   -0.8736   -0.5016    0.0000 C   0  0  1  0  0  0  0  0  0  0  0  0
   -0.8746   -1.5016    0.0000 O   0  0  0  0  0  0  0  0  0  0  0  0
   -1.7445    2.0075    0.0000 H   0  0  0  0  0  0  0  0  0  0  0  0
   -3.4798   -1.0003    0.0000 H   0  0  0  0  0  0  0  0  0  0  0  0
   -1.7434   -1.0006    0.0000 H   0  0  0  0  0  0  0  0  0  0  0  0
  1  2  1  0  0  0  0
  3  2  1  1  0  0  0
  3 22  1  0  0  0  0
  3  4  1  0  0  0  0
  4  5  1  1  0  0  0
  4  6  1  0  0  0  0
  6  7  1  1  0  0  0
  7  8  1  0  0  0  0
  6  9  1  0  0  0  0
  9 21  1  0  0  0  0
  9 10  1  0  0  0  0
 10 11  1  0  0  0  0
 11 18  1  0  0  0  0
 11 12  1  1  0  0  0
 11 13  1  0  0  0  0
 13 14  1  0  0  0  0
 14 15  1  0  0  0  0
 15 16  1  6  0  0  0
 15 17  1  0  0  0  0
 17 18  1  0  0  0  0
 18 19  2  0  0  0  0
 13 20  1  0  0  0  0
 20 21  1  0  0  0  0
 21 22  1  0  0  0  0
 22 23  1  6  0  0  0
  9 24  1  1  0  0  0
 13 25  1  1  0  0  0
 21 26  1  6  0  0  0
M  END
>  <Name>
Spectinomycin

>  <CAS #>
1695-77-8

>  <human Clearance (mL/min/kg)>
0.99

>  <Primary mechanism (metabolic, biliary or renal)>
renal

>  <seqId>
840.0

>  <Code (mechanism and clearance degree index)>
R1

>  < Five M1 and R1 test groups>
R1_3

>  <formamide>
0

>  <prodrug phosphates>
0

>  <VolSurf_V>
652.25

>  <VolSurf_S>
451.593

>  <VolSurf_R>
1.44433

>  <VolSurf_G>
1.3835

>  <VolSurf_IW1>
0.0459818

>  <VolSurf_IW2>
0.0798526

>  <VolSurf_IW3>
0.141627

>  <VolSurf_IW4>
0.256673

>  <VolSurf_ID1>
0.045487

>  <VolSurf_ID2>
0.0618726

>  <VolSurf_ID3>
0.323063

>  <VolSurf_ID4>
0.0

>  <VolSurf_HL1>
54.2308

>  <VolSurf_HL2>
191.5

>  <VolSurf_A>
2.30118

>  <VolSurf_CP>
0.049275

>  <VolSurf_POL>
33.384

>  <VolSurf_MW>
333.357

>  <VolSurf_FLEX>
0.20027

>  <VolSurf_FLEX_RB>
0.0250337

>  <VolSurf_NCC>
1.0

>  <VolSurf_LOGP n-Oct>
-2.922

>  <VolSurf_LOGP c-Hex>
-3.967

>  <VolSurf_PSA>
150.96

>  <VolSurf_HSA>
300.633

>  <VolSurf_PSAR>
0.334284

>  <VolSurf_PHSAR>
0.502141

>  <VolSurf_LgD5>
-7.04096

>  <VolSurf_LgD6>
-6.30832

>  <VolSurf_LgD7>
-5.49377

>  <VolSurf_LgD7.5>
-5.02027

>  <VolSurf_LgD8>
-4.5357

>  <VolSurf_LgD9>
-3.62452

>  <VolSurf_LgD10>
-3.0696

>  <VolSurf_AUS7.4>
0.116594

>  <VolSurf_%FU4>
6.39991E-6

>  <VolSurf_%FU5>
5.19031E-4

>  <VolSurf_%FU6>
0.0179565

>  <VolSurf_%FU7>
0.237633

>  <VolSurf_%FU8>
2.40316

>  <VolSurf_%FU9>
19.8117

>  <VolSurf_%FU10>
71.1773

>  <ID>
401

>  <MOKAID>
402

>  <Clearance Route>
renal

>  <PC1>
-4.51121

>  <PC2>
1.31228

$$$$
Spirapril
  -OEChem-08301611272D

 31 33  0     1  0  0  0  0  0999 V2000
   -0.5949   -5.9757    0.0000 C   0  0  0  0  0  0  0  0  0  0  0  0
   -1.5064   -6.3870    0.0000 C   0  0  0  0  0  0  0  0  0  0  0  0
   -2.3218   -5.8080    0.0000 C   0  0  0  0  0  0  0  0  0  0  0  0
   -2.2247   -4.8075    0.0000 C   0  0  0  0  0  0  0  0  0  0  0  0
   -1.3122   -4.3860    0.0000 C   0  0  0  0  0  0  0  0  0  0  0  0
   -0.4978   -4.9752    0.0000 C   0  0  0  0  0  0  0  0  0  0  0  0
    0.4137   -4.5639    0.0000 C   0  0  0  0  0  0  0  0  0  0  0  0
    0.5133   -3.5688    0.0000 C   0  0  0  0  0  0  0  0  0  0  0  0
    1.4248   -3.1575    0.0000 C   0  0  2  0  0  0  0  0  0  0  0  0
    1.5243   -2.1625    0.0000 N   0  0  0  0  0  0  0  0  0  0  0  0
    0.7124   -1.5788    0.0000 C   0  0  1  0  0  0  0  0  0  0  0  0
    0.8119   -0.5837    0.0000 C   0  0  0  0  0  0  0  0  0  0  0  0
    0.0000    0.0000    0.0000 N   0  0  0  0  0  0  0  0  0  0  0  0
   -0.0051    1.0001    0.0000 C   0  0  1  0  0  0  0  0  0  0  0  0
   -0.9578    1.3043    0.0000 C   0  0  0  0  0  0  0  0  0  0  0  0
   -1.5416    0.4923    0.0000 C   0  0  0  0  0  0  0  0  0  0  0  0
   -0.9496   -0.3137    0.0000 C   0  0  0  0  0  0  0  0  0  0  0  0
   -2.1336   -0.3137    0.0000 S   0  0  0  0  0  0  0  0  0  0  0  0
   -3.0832   -0.0000    0.0000 C   0  0  0  0  0  0  0  0  0  0  0  0
   -3.0781    1.0001    0.0000 C   0  0  0  0  0  0  0  0  0  0  0  0
   -2.1254    1.3043    0.0000 S   0  0  0  0  0  0  0  0  0  0  0  0
    0.8009    1.5920    0.0000 C   0  0  0  0  0  0  0  0  0  0  0  0
    1.7165    1.1899    0.0000 O   0  0  0  0  0  0  0  0  0  0  0  0
    0.6913    2.5860    0.0000 O   0  0  0  0  0  0  0  0  0  0  0  0
    1.7234   -0.1724    0.0000 O   0  0  0  0  0  0  0  0  0  0  0  0
   -0.1991   -1.9901    0.0000 C   0  0  0  0  0  0  0  0  0  0  0  0
    2.2367   -3.7413    0.0000 C   0  0  0  0  0  0  0  0  0  0  0  0
    2.1372   -4.7363    0.0000 O   0  0  0  0  0  0  0  0  0  0  0  0
    3.1482   -3.3300    0.0000 O   0  0  0  0  0  0  0  0  0  0  0  0
    3.9602   -3.9137    0.0000 C   0  0  0  0  0  0  0  0  0  0  0  0
    4.8717   -3.5024    0.0000 C   0  0  0  0  0  0  0  0  0  0  0  0
  1  6  2  0  0  0  0
  1  2  1  0  0  0  0
  2  3  2  0  0  0  0
  3  4  1  0  0  0  0
  4  5  2  0  0  0  0
  5  6  1  0  0  0  0
  6  7  1  0  0  0  0
  7  8  1  0  0  0  0
  9  8  1  6  0  0  0
  9 10  1  0  0  0  0
 10 11  1  0  0  0  0
 11 12  1  0  0  0  0
 12 13  1  0  0  0  0
 13 17  1  0  0  0  0
 13 14  1  0  0  0  0
 14 15  1  0  0  0  0
 15 16  1  0  0  0  0
 16 21  1  0  0  0  0
 16 17  1  0  0  0  0
 16 18  1  0  0  0  0
 18 19  1  0  0  0  0
 19 20  1  0  0  0  0
 20 21  1  0  0  0  0
 14 22  1  1  0  0  0
 22 23  2  0  0  0  0
 22 24  1  0  0  0  0
 12 25  2  0  0  0  0
 11 26  1  6  0  0  0
  9 27  1  0  0  0  0
 27 28  2  0  0  0  0
 27 29  1  0  0  0  0
 29 30  1  0  0  0  0
 30 31  1  0  0  0  0
M  END
>  <Name>
Spirapril

>  <CAS #>
47-97-6

>  <human Clearance (mL/min/kg)>
11.9

>  <Primary mechanism (metabolic, biliary or renal)>
metabolic

>  <seqId>
842.0

>  <Code (mechanism and clearance degree index)>
M1

>  < Five M1 and R1 test groups>
M1_1

>  <formamide>
0

>  <prodrug phosphates>
0

>  <VolSurf_V>
996.5

>  <VolSurf_S>
668.383

>  <VolSurf_R>
1.49091

>  <VolSurf_G>
1.63055

>  <VolSurf_IW1>
0.0761614

>  <VolSurf_IW2>
0.206728

>  <VolSurf_IW3>
0.443002

>  <VolSurf_IW4>
0.613234

>  <VolSurf_ID1>
0.054533

>  <VolSurf_ID2>
0.182898

>  <VolSurf_ID3>
0.300548

>  <VolSurf_ID4>
0.401916

>  <VolSurf_HL1>
6.20513

>  <VolSurf_HL2>
8.6375

>  <VolSurf_A>
8.56037

>  <VolSurf_CP>
0.112314

>  <VolSurf_POL>
47.108

>  <VolSurf_MW>
465.606

>  <VolSurf_FLEX>
3.37277

>  <VolSurf_FLEX_RB>
0.259444

>  <VolSurf_NCC>
1.0

>  <VolSurf_LOGP n-Oct>
2.664

>  <VolSurf_LOGP c-Hex>
1.199

>  <VolSurf_PSA>
128.07

>  <VolSurf_HSA>
540.313

>  <VolSurf_PSAR>
0.191612

>  <VolSurf_PHSAR>
0.237029

>  <VolSurf_LgD5>
0.133306

>  <VolSurf_LgD6>
-0.405432

>  <VolSurf_LgD7>
-0.760842

>  <VolSurf_LgD7.5>
-0.810583

>  <VolSurf_LgD8>
-0.827778

>  <VolSurf_LgD9>
-0.83517

>  <VolSurf_LgD10>
-0.835917

>  <VolSurf_AUS7.4>
0.0

>  <VolSurf_%FU4>
0.0

>  <VolSurf_%FU5>
0.0

>  <VolSurf_%FU6>
0.0

>  <VolSurf_%FU7>
0.0

>  <VolSurf_%FU8>
0.0

>  <VolSurf_%FU9>
0.0

>  <VolSurf_%FU10>
0.0

>  <ID>
402

>  <MOKAID>
403

>  <Clearance Route>
possible billary

>  <PC1>
-0.983671

>  <PC2>
-1.24366

$$$$
Stavudine
  -OEChem-08301611272D

 16 17  0     1  0  0  0  0  0999 V2000
   -0.8653   -0.5013    0.0000 C   0  0  0  0  0  0  0  0  0  0  0  0
    0.0000    0.0000    0.0000 C   0  0  0  0  0  0  0  0  0  0  0  0
   -0.0000    1.0052    0.0000 C   0  0  0  0  0  0  0  0  0  0  0  0
    0.8675    1.5129    0.0000 N   0  0  0  0  0  0  0  0  0  0  0  0
    0.8675    2.5129    0.0000 C   0  0  2  0  0  0  0  0  0  0  0  0
    1.6797    3.1042    0.0000 O   0  0  0  0  0  0  0  0  0  0  0  0
    1.3658    4.0541    0.0000 C   0  0  2  0  0  0  0  0  0  0  0  0
    1.9521    4.8642    0.0000 C   0  0  0  0  0  0  0  0  0  0  0  0
    1.5437    5.7770    0.0000 O   0  0  0  0  0  0  0  0  0  0  0  0
    0.3658    4.0554    0.0000 C   0  0  0  0  0  0  0  0  0  0  0  0
    0.0577    3.1024    0.0000 C   0  0  0  0  0  0  0  0  0  0  0  0
    1.7350    1.0052    0.0000 C   0  0  0  0  0  0  0  0  0  0  0  0
    2.6025    1.5026    0.0000 O   0  0  0  0  0  0  0  0  0  0  0  0
    1.7350    0.0000    0.0000 N   0  0  0  0  0  0  0  0  0  0  0  0
    0.8675   -0.4975    0.0000 C   0  0  0  0  0  0  0  0  0  0  0  0
    0.8675   -1.4975    0.0000 O   0  0  0  0  0  0  0  0  0  0  0  0
  1  2  1  0  0  0  0
  2 15  1  0  0  0  0
  2  3  2  0  0  0  0
  3  4  1  0  0  0  0
  5  4  1  1  0  0  0
  5 11  1  0  0  0  0
  5  6  1  0  0  0  0
  6  7  1  0  0  0  0
  7  8  1  1  0  0  0
  8  9  1  0  0  0  0
  7 10  1  0  0  0  0
 10 11  2  0  0  0  0
  4 12  1  0  0  0  0
 12 13  2  0  0  0  0
 12 14  1  0  0  0  0
 14 15  1  0  0  0  0
 15 16  2  0  0  0  0
M  END
>  <Name>
Stavudine

>  <CAS #>
3056-17-5

>  <human Clearance (mL/min/kg)>
8.2

>  <Primary mechanism (metabolic, biliary or renal)>
renal

>  <seqId>
846.0

>  <Code (mechanism and clearance degree index)>
R1

>  < Five M1 and R1 test groups>
R1_5

>  <formamide>
0

>  <prodrug phosphates>
0

>  <VolSurf_V>
483.25

>  <VolSurf_S>
361.806

>  <VolSurf_R>
1.33566

>  <VolSurf_G>
1.33911

>  <VolSurf_IW1>
0.114365

>  <VolSurf_IW2>
0.228491

>  <VolSurf_IW3>
0.48954

>  <VolSurf_IW4>
1.0791

>  <VolSurf_ID1>
0.0974754

>  <VolSurf_ID2>
0.223762

>  <VolSurf_ID3>
0.342683

>  <VolSurf_ID4>
0.488509

>  <VolSurf_HL1>
5.98958

>  <VolSurf_HL2>
4.53846

>  <VolSurf_A>
3.78761

>  <VolSurf_CP>
0.230001

>  <VolSurf_POL>
21.01

>  <VolSurf_MW>
224.213

>  <VolSurf_FLEX>
0.537061

>  <VolSurf_FLEX_RB>
0.134265

>  <VolSurf_NCC>
0.0

>  <VolSurf_LOGP n-Oct>
-0.708

>  <VolSurf_LOGP c-Hex>
-3.722

>  <VolSurf_PSA>
81.94

>  <VolSurf_HSA>
279.866

>  <VolSurf_PSAR>
0.226475

>  <VolSurf_PHSAR>
0.292783

>  <VolSurf_LgD5>
-0.708016

>  <VolSurf_LgD6>
-0.708158

>  <VolSurf_LgD7>
-0.709579

>  <VolSurf_LgD7.5>
-0.712972

>  <VolSurf_LgD8>
-0.723532

>  <VolSurf_LgD9>
-0.842843

>  <VolSurf_LgD10>
-1.37436

>  <VolSurf_AUS7.4>
1.9991

>  <VolSurf_%FU4>
99.9996

>  <VolSurf_%FU5>
99.9964

>  <VolSurf_%FU6>
99.9636

>  <VolSurf_%FU7>
99.6371

>  <VolSurf_%FU8>
96.4857

>  <VolSurf_%FU9>
73.3006

>  <VolSurf_%FU10>
21.5346

>  <ID>
403

>  <MOKAID>
404

>  <Clearance Route>
uncertain

>  <PC1>
0.751792

>  <PC2>
4.12521

$$$$
Streptomycin
  -OEChem-08301611272D

 40 42  0     1  0  0  0  0  0999 V2000
   -1.7313   -1.0038    0.0000 C   0  0  0  0  0  0  0  0  0  0  0  0
   -1.7328   -0.0038    0.0000 N   0  0  0  0  0  0  0  0  0  0  0  0
   -0.8675    0.4975    0.0000 C   0  0  1  0  0  0  0  0  0  0  0  0
    0.0000    0.0000    0.0000 C   0  0  2  0  0  0  0  0  0  0  0  0
    0.0000   -1.0000    0.0000 O   0  0  0  0  0  0  0  0  0  0  0  0
    0.8675    0.4975    0.0000 C   0  0  1  0  0  0  0  0  0  0  0  0
    1.7328   -0.0038    0.0000 O   0  0  0  0  0  0  0  0  0  0  0  0
    0.8675    1.5027    0.0000 C   0  0  2  0  0  0  0  0  0  0  0  0
    1.7350    2.0001    0.0000 C   0  0  0  0  0  0  0  0  0  0  0  0
    2.5995    1.4976    0.0000 O   0  0  0  0  0  0  0  0  0  0  0  0
   -0.0000    2.0104    0.0000 O   0  0  0  0  0  0  0  0  0  0  0  0
   -0.8675    1.5027    0.0000 C   0  0  1  0  0  0  0  0  0  0  0  0
   -2.3856    2.3732    0.0000 O   0  0  0  0  0  0  0  0  0  0  0  0
   -2.3886    3.3732    0.0000 C   0  0  1  0  0  0  0  0  0  0  0  0
   -3.1986    3.9597    0.0000 C   0  0  2  0  0  0  0  0  0  0  0  0
   -4.1482    3.6462    0.0000 O   0  0  0  0  0  0  0  0  0  0  0  0
   -4.8944    4.3118    0.0000 C   0  0  1  0  0  0  0  0  0  0  0  0
   -4.6872    5.2954    0.0000 C   0  0  2  0  0  0  0  0  0  0  0  0
   -3.7371    5.6075    0.0000 O   0  0  0  0  0  0  0  0  0  0  0  0
   -5.4335    5.9611    0.0000 C   0  0  1  0  0  0  0  0  0  0  0  0
   -5.2273    6.9396    0.0000 O   0  0  0  0  0  0  0  0  0  0  0  0
   -6.3849    5.6532    0.0000 C   0  0  2  0  0  0  0  0  0  0  0  0
   -7.1283    6.3221    0.0000 N   0  0  0  0  0  0  0  0  0  0  0  0
   -8.0792    6.0128    0.0000 C   0  0  0  0  0  0  0  0  0  0  0  0
   -8.2868    5.0345    0.0000 N   0  0  0  0  0  0  0  0  0  0  0  0
   -8.8226    6.6817    0.0000 N   0  0  0  0  0  0  0  0  0  0  0  0
   -6.5922    4.6696    0.0000 C   0  0  1  0  0  0  0  0  0  0  0  0
   -7.5436    4.3617    0.0000 O   0  0  0  0  0  0  0  0  0  0  0  0
   -5.8480    3.9939    0.0000 C   0  0  2  0  0  0  0  0  0  0  0  0
   -6.0542    3.0154    0.0000 N   0  0  0  0  0  0  0  0  0  0  0  0
   -5.3098    2.3476    0.0000 C   0  0  0  0  0  0  0  0  0  0  0  0
   -4.3593    2.6583    0.0000 N   0  0  0  0  0  0  0  0  0  0  0  0
   -5.5160    1.3691    0.0000 N   0  0  0  0  0  0  0  0  0  0  0  0
   -2.8968    4.9136    0.0000 O   0  0  0  0  0  0  0  0  0  0  0  0
   -1.8922    4.9174    0.0000 C   0  0  1  0  0  0  0  0  0  0  0  0
   -1.3067    5.7281    0.0000 C   0  0  0  0  0  0  0  0  0  0  0  0
   -1.5809    3.9653    0.0000 C   0  0  1  0  0  0  0  0  0  0  0  0
   -0.6684    4.3745    0.0000 O   0  0  0  0  0  0  0  0  0  0  0  0
   -1.0779    3.1011    0.0000 C   0  0  0  0  0  0  0  0  0  0  0  0
   -0.0779    3.1046    0.0000 O   0  0  0  0  0  0  0  0  0  0  0  0
  1  2  1  0  0  0  0
  3  2  1  6  0  0  0
  3 12  1  0  0  0  0
  3  4  1  0  0  0  0
  4  5  1  1  0  0  0
  4  6  1  0  0  0  0
  6  7  1  6  0  0  0
  6  8  1  0  0  0  0
  8  9  1  1  0  0  0
  9 10  1  0  0  0  0
  8 11  1  0  0  0  0
 11 12  1  0  0  0  0
 12 13  1  6  0  0  0
 14 13  1  1  0  0  0
 14 37  1  0  0  0  0
 14 15  1  0  0  0  0
 15 16  1  6  0  0  0
 17 16  1  6  0  0  0
 17 29  1  0  0  0  0
 17 18  1  0  0  0  0
 18 19  1  1  0  0  0
 18 20  1  0  0  0  0
 20 21  1  6  0  0  0
 20 22  1  0  0  0  0
 22 23  1  1  0  0  0
 23 24  1  0  0  0  0
 24 25  2  3  0  0  0
 24 26  1  0  0  0  0
 22 27  1  0  0  0  0
 27 28  1  6  0  0  0
 27 29  1  0  0  0  0
 29 30  1  1  0  0  0
 30 31  1  0  0  0  0
 31 32  2  3  0  0  0
 31 33  1  0  0  0  0
 15 34  1  0  0  0  0
 34 35  1  0  0  0  0
 35 36  1  1  0  0  0
 35 37  1  0  0  0  0
 37 38  1  1  0  0  0
 37 39  1  0  0  0  0
 39 40  2  0  0  0  0
M  END
>  <Name>
Streptomycin

>  <CAS #>
57-92-1

>  <human Clearance (mL/min/kg)>
0.78

>  <Primary mechanism (metabolic, biliary or renal)>
renal

>  <seqId>
847.0

>  <Code (mechanism and clearance degree index)>
R1

>  < Five M1 and R1 test groups>
R1_1

>  <formamide>
0

>  <prodrug phosphates>
0

>  <VolSurf_V>
1038.12

>  <VolSurf_S>
682.276

>  <VolSurf_R>
1.52156

>  <VolSurf_G>
1.61423

>  <VolSurf_IW1>
0.039211

>  <VolSurf_IW2>
0.0704638

>  <VolSurf_IW3>
0.158224

>  <VolSurf_IW4>
0.218914

>  <VolSurf_ID1>
0.0457001

>  <VolSurf_ID2>
0.105046

>  <VolSurf_ID3>
0.203738

>  <VolSurf_ID4>
0.0

>  <VolSurf_HL1>
105.077

>  <VolSurf_HL2>
170.667

>  <VolSurf_A>
4.93445

>  <VolSurf_CP>
0.0128189

>  <VolSurf_POL>
52.906

>  <VolSurf_MW>
583.59

>  <VolSurf_FLEX>
2.56523

>  <VolSurf_FLEX_RB>
0.116602

>  <VolSurf_NCC>
2.0

>  <VolSurf_LOGP n-Oct>
-7.847

>  <VolSurf_LOGP c-Hex>
-9.0

>  <VolSurf_PSA>
348.97

>  <VolSurf_HSA>
333.306

>  <VolSurf_PSAR>
0.511479

>  <VolSurf_PHSAR>
1.047

>  <VolSurf_LgD5>
-9.0

>  <VolSurf_LgD6>
-9.0

>  <VolSurf_LgD7>
-9.0

>  <VolSurf_LgD7.5>
-9.0

>  <VolSurf_LgD8>
-9.0

>  <VolSurf_LgD9>
-9.0

>  <VolSurf_LgD10>
-9.0

>  <VolSurf_AUS7.4>
0.0

>  <VolSurf_%FU4>
4.88916E-16

>  <VolSurf_%FU5>
4.64472E-13

>  <VolSurf_%FU6>
3.09655E-10

>  <VolSurf_%FU7>
7.1458E-8

>  <VolSurf_%FU8>
8.21616E-6

>  <VolSurf_%FU9>
8.29347E-4

>  <VolSurf_%FU10>
0.0784692

>  <ID>
404

>  <MOKAID>
405

>  <Clearance Route>
renal

>  <PC1>
-9.898610000000001

>  <PC2>
-0.778574

$$$$
Sufentanil
  -OEChem-08301611272D

 27 29  0     0  0  0  0  0  0999 V2000
    2.9549    0.5181    0.0000 C   0  0  0  0  0  0  0  0  0  0  0  0
    1.9700    0.3454    0.0000 C   0  0  0  0  0  0  0  0  0  0  0  0
    1.6270   -0.5940    0.0000 C   0  0  0  0  0  0  0  0  0  0  0  0
    2.2691   -1.3606    0.0000 O   0  0  0  0  0  0  0  0  0  0  0  0
    0.6420   -0.7667    0.0000 N   0  0  0  0  0  0  0  0  0  0  0  0
    0.2991   -1.7060    0.0000 C   0  0  0  0  0  0  0  0  0  0  0  0
    0.9468   -2.4748    0.0000 C   0  0  0  0  0  0  0  0  0  0  0  0
    0.6039   -3.4142    0.0000 C   0  0  0  0  0  0  0  0  0  0  0  0
   -0.3801   -3.5926    0.0000 C   0  0  0  0  0  0  0  0  0  0  0  0
   -1.0278   -2.8239    0.0000 C   0  0  0  0  0  0  0  0  0  0  0  0
   -0.6914   -1.8767    0.0000 C   0  0  0  0  0  0  0  0  0  0  0  0
    0.0000    0.0000    0.0000 C   0  0  0  0  0  0  0  0  0  0  0  0
   -0.6420   -0.7667    0.0000 C   0  0  0  0  0  0  0  0  0  0  0  0
   -1.6270   -0.5940    0.0000 O   0  0  0  0  0  0  0  0  0  0  0  0
   -2.2691   -1.3606    0.0000 C   0  0  0  0  0  0  0  0  0  0  0  0
   -0.8675    0.4975    0.0000 C   0  0  0  0  0  0  0  0  0  0  0  0
   -0.8675    1.5027    0.0000 C   0  0  0  0  0  0  0  0  0  0  0  0
    0.0000    2.0104    0.0000 N   0  0  0  0  0  0  0  0  0  0  0  0
    0.0000    3.0104    0.0000 C   0  0  0  0  0  0  0  0  0  0  0  0
   -0.8660    3.5104    0.0000 C   0  0  0  0  0  0  0  0  0  0  0  0
   -0.8660    4.5104    0.0000 C   0  0  0  0  0  0  0  0  0  0  0  0
   -1.6758    5.0999    0.0000 C   0  0  0  0  0  0  0  0  0  0  0  0
   -1.3677    6.0529    0.0000 C   0  0  0  0  0  0  0  0  0  0  0  0
   -0.3677    6.0516    0.0000 C   0  0  0  0  0  0  0  0  0  0  0  0
   -0.0538    5.1017    0.0000 S   0  0  0  0  0  0  0  0  0  0  0  0
    0.8675    1.5027    0.0000 C   0  0  0  0  0  0  0  0  0  0  0  0
    0.8675    0.4975    0.0000 C   0  0  0  0  0  0  0  0  0  0  0  0
  1  2  1  0  0  0  0
  2  3  1  0  0  0  0
  3  4  2  0  0  0  0
  3  5  1  0  0  0  0
  5  6  1  0  0  0  0
  6 11  2  0  0  0  0
  6  7  1  0  0  0  0
  7  8  2  0  0  0  0
  8  9  1  0  0  0  0
  9 10  2  0  0  0  0
 10 11  1  0  0  0  0
  5 12  1  0  0  0  0
 12 27  1  0  0  0  0
 12 13  1  0  0  0  0
 13 14  1  0  0  0  0
 14 15  1  0  0  0  0
 12 16  1  0  0  0  0
 16 17  1  0  0  0  0
 17 18  1  0  0  0  0
 18 19  1  0  0  0  0
 19 20  1  0  0  0  0
 20 21  1  0  0  0  0
 21 25  1  0  0  0  0
 21 22  2  0  0  0  0
 22 23  1  0  0  0  0
 23 24  2  0  0  0  0
 24 25  1  0  0  0  0
 18 26  1  0  0  0  0
 26 27  1  0  0  0  0
M  END
>  <Name>
Sufentanil

>  <CAS #>
56030-54-7

>  <human Clearance (mL/min/kg)>
15.0

>  <Primary mechanism (metabolic, biliary or renal)>
metabolic

>  <seqId>
848.0

>  <Code (mechanism and clearance degree index)>
M1

>  < Five M1 and R1 test groups>
M1_3

>  <formamide>
0

>  <prodrug phosphates>
0

>  <VolSurf_V>
894.625

>  <VolSurf_S>
592.175

>  <VolSurf_R>
1.51074

>  <VolSurf_G>
1.51464

>  <VolSurf_IW1>
0.0370659

>  <VolSurf_IW2>
0.191318

>  <VolSurf_IW3>
0.772856

>  <VolSurf_IW4>
1.29742

>  <VolSurf_ID1>
0.0229279

>  <VolSurf_ID2>
0.0871349

>  <VolSurf_ID3>
0.126885

>  <VolSurf_ID4>
0.14167

>  <VolSurf_HL1>
1.20946

>  <VolSurf_HL2>
1.20588

>  <VolSurf_A>
7.75718

>  <VolSurf_CP>
0.926969

>  <VolSurf_POL>
45.745

>  <VolSurf_MW>
387.559

>  <VolSurf_FLEX>
2.16811

>  <VolSurf_FLEX_RB>
0.197101

>  <VolSurf_NCC>
1.0

>  <VolSurf_LOGP n-Oct>
3.884

>  <VolSurf_LOGP c-Hex>
3.017

>  <VolSurf_PSA>
55.79

>  <VolSurf_HSA>
536.385

>  <VolSurf_PSAR>
0.094212

>  <VolSurf_PHSAR>
0.104011

>  <VolSurf_LgD5>
0.788217

>  <VolSurf_LgD6>
1.57

>  <VolSurf_LgD7>
2.52374

>  <VolSurf_LgD7.5>
2.98259

>  <VolSurf_LgD8>
3.37784

>  <VolSurf_LgD9>
3.79732

>  <VolSurf_LgD10>
3.87451

>  <VolSurf_AUS7.4>
1.03767

>  <VolSurf_%FU4>
0.00452475

>  <VolSurf_%FU5>
0.045229

>  <VolSurf_%FU6>
0.450457

>  <VolSurf_%FU7>
4.32906

>  <VolSurf_%FU8>
31.153

>  <VolSurf_%FU9>
81.9003

>  <VolSurf_%FU10>
97.8378

>  <ID>
405

>  <MOKAID>
406

>  <Clearance Route>
metabolic

>  <PC1>
3.05395

>  <PC2>
-1.4571

$$$$
Sugammadex
  -OEChem-08301611272D

144152  0     1  0  0  0  0  0999 V2000
    2.0305   -1.9115    0.0000 C   0  0  0  0  0  0  0  0  0  0  0  0
    1.4097   -2.6955    0.0000 S   0  0  0  0  0  0  0  0  0  0  0  0
    1.7782   -3.6251    0.0000 C   0  0  0  0  0  0  0  0  0  0  0  0
    1.1574   -4.4091    0.0000 C   0  0  0  0  0  0  0  0  0  0  0  0
    0.1681   -4.2634    0.0000 C   0  0  0  0  0  0  0  0  0  0  0  0
   -0.2005   -3.3338    0.0000 O   0  0  0  0  0  0  0  0  0  0  0  0
   -0.4527   -5.0474    0.0000 O   0  0  0  0  0  0  0  0  0  0  0  0
    1.3855   -0.2847    0.0000 C   0  0  2  0  0  0  0  0  0  0  0  0
    2.1067    0.7401    0.0000 C   0  0  1  0  0  0  0  0  0  0  0  0
    3.5680    0.7401    0.0000 O   0  0  0  0  0  0  0  0  0  0  0  0
    4.5928   -0.1993    0.0000 C   0  0  1  0  0  0  0  0  0  0  0  0
    3.9286   -0.9774    0.0000 O   0  0  0  0  0  0  0  0  0  0  0  0
    4.2607   -2.1920    0.0000 C   0  0  2  0  0  0  0  0  0  0  0  0
    3.6033   -2.9455    0.0000 C   0  0  0  0  0  0  0  0  0  0  0  0
    3.9271   -3.8916    0.0000 S   0  0  0  0  0  0  0  0  0  0  0  0
    4.9084   -4.0842    0.0000 C   0  0  0  0  0  0  0  0  0  0  0  0
    5.5658   -3.3307    0.0000 C   0  0  0  0  0  0  0  0  0  0  0  0
    6.5471   -3.5233    0.0000 C   0  0  0  0  0  0  0  0  0  0  0  0
    6.8710   -4.4694    0.0000 O   0  0  0  0  0  0  0  0  0  0  0  0
    7.2045   -2.7697    0.0000 O   0  0  0  0  0  0  0  0  0  0  0  0
    5.3425   -2.3344    0.0000 C   0  0  2  0  0  0  0  0  0  0  0  0
    6.2820   -1.6131    0.0000 C   0  0  1  0  0  0  0  0  0  0  0  0
    5.9024   -0.2847    0.0000 C   0  0  1  0  0  0  0  0  0  0  0  0
    6.5303    0.4936    0.0000 O   0  0  0  0  0  0  0  0  0  0  0  0
    7.9438   -2.1617    0.0000 O   0  0  0  0  0  0  0  0  0  0  0  0
    5.5133   -3.8526    0.0000 O   0  0  0  0  0  0  0  0  0  0  0  0
    4.2607   -4.7351    0.0000 C   0  0  1  0  0  0  0  0  0  0  0  0
    2.9038   -4.8965    0.0000 O   0  0  0  0  0  0  0  0  0  0  0  0
    2.2396   -6.0920    0.0000 C   0  0  2  0  0  0  0  0  0  0  0  0
    0.4940   -6.2163    0.0000 C   0  0  0  0  0  0  0  0  0  0  0  0
   -0.0662   -5.3879    0.0000 S   0  0  0  0  0  0  0  0  0  0  0  0
   -1.0637   -5.4589    0.0000 C   0  0  0  0  0  0  0  0  0  0  0  0
   -1.5009   -6.3583    0.0000 C   0  0  0  0  0  0  0  0  0  0  0  0
   -2.4984   -6.4293    0.0000 C   0  0  0  0  0  0  0  0  0  0  0  0
   -3.0586   -5.6009    0.0000 O   0  0  0  0  0  0  0  0  0  0  0  0
   -2.9357   -7.3286    0.0000 O   0  0  0  0  0  0  0  0  0  0  0  0
    3.0176   -7.1170    0.0000 C   0  0  2  0  0  0  0  0  0  0  0  0
    4.4884   -7.1170    0.0000 C   0  0  1  0  0  0  0  0  0  0  0  0
    5.0673   -5.8074    0.0000 C   0  0  1  0  0  0  0  0  0  0  0  0
    6.0608   -5.6933    0.0000 O   0  0  0  0  0  0  0  0  0  0  0  0
    5.0342   -7.9549    0.0000 O   0  0  0  0  0  0  0  0  0  0  0  0
    2.2964   -8.2177    0.0000 O   0  0  0  0  0  0  0  0  0  0  0  0
    1.0819   -8.2462    0.0000 C   0  0  1  0  0  0  0  0  0  0  0  0
    0.0000   -7.4965    0.0000 O   0  0  0  0  0  0  0  0  0  0  0  0
   -1.1101   -7.9424    0.0000 C   0  0  2  0  0  0  0  0  0  0  0  0
   -1.8858   -7.3113    0.0000 C   0  0  0  0  0  0  0  0  0  0  0  0
   -2.8202   -7.6676    0.0000 S   0  0  0  0  0  0  0  0  0  0  0  0
   -2.9789   -8.6549    0.0000 C   0  0  0  0  0  0  0  0  0  0  0  0
   -2.2031   -9.2860    0.0000 C   0  0  0  0  0  0  0  0  0  0  0  0
   -2.3618  -10.2733    0.0000 C   0  0  0  0  0  0  0  0  0  0  0  0
   -3.2962  -10.6296    0.0000 O   0  0  0  0  0  0  0  0  0  0  0  0
   -1.5861  -10.9044    0.0000 O   0  0  0  0  0  0  0  0  0  0  0  0
   -1.3189   -9.1096    0.0000 C   0  0  2  0  0  0  0  0  0  0  0  0
   -0.4174   -9.9637    0.0000 C   0  0  1  0  0  0  0  0  0  0  0  0
    0.8256   -9.7170    0.0000 C   0  0  1  0  0  0  0  0  0  0  0  0
    1.5409  -10.4158    0.0000 O   0  0  0  0  0  0  0  0  0  0  0  0
   -0.9031  -11.6449    0.0000 O   0  0  0  0  0  0  0  0  0  0  0  0
   -2.2110   -9.7170    0.0000 O   0  0  0  0  0  0  0  0  0  0  0  0
   -3.3970   -9.2995    0.0000 C   0  0  1  0  0  0  0  0  0  0  0  0
   -3.7576   -8.2177    0.0000 O   0  0  0  0  0  0  0  0  0  0  0  0
   -4.9818   -7.9424    0.0000 C   0  0  1  0  0  0  0  0  0  0  0  0
   -5.9211   -8.9104    0.0000 C   0  0  1  0  0  0  0  0  0  0  0  0
   -7.0220   -8.5783    0.0000 O   0  0  0  0  0  0  0  0  0  0  0  0
   -7.3351   -7.3636    0.0000 C   0  0  1  0  0  0  0  0  0  0  0  0
   -6.6899   -6.3104    0.0000 O   0  0  0  0  0  0  0  0  0  0  0  0
   -7.3351   -5.3139    0.0000 C   0  0  1  0  0  0  0  0  0  0  0  0
   -8.4928   -5.1432    0.0000 C   0  0  1  0  0  0  0  0  0  0  0  0
   -8.7395   -4.1184    0.0000 O   0  0  0  0  0  0  0  0  0  0  0  0
   -8.1037   -3.2453    0.0000 C   0  0  1  0  0  0  0  0  0  0  0  0
   -6.9460   -3.2453    0.0000 O   0  0  0  0  0  0  0  0  0  0  0  0
   -6.3102   -2.2775    0.0000 C   0  0  1  0  0  0  0  0  0  0  0  0
   -6.6899   -1.1672    0.0000 C   0  0  1  0  0  0  0  0  0  0  0  0
   -6.2249   -0.1138    0.0000 O   0  0  0  0  0  0  0  0  0  0  0  0
   -4.6402    0.1328    0.0000 C   0  0  1  0  0  0  0  0  0  0  0  0
   -3.8715   -0.6927    0.0000 O   0  0  0  0  0  0  0  0  0  0  0  0
   -2.7898   -0.2847    0.0000 C   0  0  3  0  0  0  0  0  0  0  0  0
   -2.3153    0.8825    0.0000 C   0  0  1  0  0  0  0  0  0  0  0  0
   -1.5941    1.5752    0.0000 O   0  0  0  0  0  0  0  0  0  0  0  0
   -0.3606    1.2431    0.0000 C   0  0  1  0  0  0  0  0  0  0  0  0
    0.0000    0.0000    0.0000 O   0  0  0  0  0  0  0  0  0  0  0  0
    0.5220    2.2109    0.0000 C   0  0  1  0  0  0  0  0  0  0  0  0
    1.8031    1.9073    0.0000 C   0  0  1  0  0  0  0  0  0  0  0  0
    2.5025    2.6221    0.0000 O   0  0  0  0  0  0  0  0  0  0  0  0
    0.2271    3.1664    0.0000 O   0  0  0  0  0  0  0  0  0  0  0  0
   -3.1788    1.7649    0.0000 C   0  0  2  0  0  0  0  0  0  0  0  0
   -2.8832    2.7202    0.0000 O   0  0  0  0  0  0  0  0  0  0  0  0
   -4.5642    1.4898    0.0000 C   0  0  1  0  0  0  0  0  0  0  0  0
   -5.3191    2.1457    0.0000 O   0  0  0  0  0  0  0  0  0  0  0  0
   -2.0917   -1.0007    0.0000 C   0  0  0  0  0  0  0  0  0  0  0  0
   -1.1226   -0.7542    0.0000 S   0  0  0  0  0  0  0  0  0  0  0  0
   -0.4245   -1.4703    0.0000 C   0  0  0  0  0  0  0  0  0  0  0  0
    0.5446   -1.2238    0.0000 C   0  0  0  0  0  0  0  0  0  0  0  0
    1.2426   -1.9398    0.0000 C   0  0  0  0  0  0  0  0  0  0  0  0
    0.9716   -2.9024    0.0000 O   0  0  0  0  0  0  0  0  0  0  0  0
    2.2118   -1.6933    0.0000 O   0  0  0  0  0  0  0  0  0  0  0  0
   -7.8854   -1.0248    0.0000 C   0  0  2  0  0  0  0  0  0  0  0  0
   -8.2681   -0.1009    0.0000 O   0  0  0  0  0  0  0  0  0  0  0  0
   -8.6920   -2.0497    0.0000 C   0  0  1  0  0  0  0  0  0  0  0  0
   -9.6865   -1.9451    0.0000 O   0  0  0  0  0  0  0  0  0  0  0  0
   -4.5740   -2.4972    0.0000 C   0  0  0  0  0  0  0  0  0  0  0  0
   -3.9693   -1.7008    0.0000 S   0  0  0  0  0  0  0  0  0  0  0  0
   -2.9772   -1.8263    0.0000 C   0  0  0  0  0  0  0  0  0  0  0  0
   -2.5899   -2.7483    0.0000 C   0  0  0  0  0  0  0  0  0  0  0  0
   -1.5978   -2.8738    0.0000 C   0  0  0  0  0  0  0  0  0  0  0  0
   -0.9930   -2.0774    0.0000 O   0  0  0  0  0  0  0  0  0  0  0  0
   -1.2105   -3.7957    0.0000 O   0  0  0  0  0  0  0  0  0  0  0  0
   -9.1570   -6.2819    0.0000 C   0  0  2  0  0  0  0  0  0  0  0  0
  -10.1569   -6.2932    0.0000 O   0  0  0  0  0  0  0  0  0  0  0  0
   -8.4928   -7.3636    0.0000 C   0  0  1  0  0  0  0  0  0  0  0  0
   -8.9810   -8.2363    0.0000 O   0  0  0  0  0  0  0  0  0  0  0  0
   -6.7944   -4.4727    0.0000 C   0  0  0  0  0  0  0  0  0  0  0  0
   -5.7955   -4.5204    0.0000 S   0  0  0  0  0  0  0  0  0  0  0  0
   -5.3374   -5.4093    0.0000 C   0  0  0  0  0  0  0  0  0  0  0  0
   -5.8781   -6.2505    0.0000 C   0  0  0  0  0  0  0  0  0  0  0  0
   -5.4200   -7.1393    0.0000 C   0  0  0  0  0  0  0  0  0  0  0  0
   -4.4211   -7.1870    0.0000 O   0  0  0  0  0  0  0  0  0  0  0  0
   -5.9607   -7.9805    0.0000 O   0  0  0  0  0  0  0  0  0  0  0  0
   -5.3328  -10.0206    0.0000 C   0  0  1  0  0  0  0  0  0  0  0  0
   -4.1752  -10.3243    0.0000 C   0  0  1  0  0  0  0  0  0  0  0  0
   -3.6042  -11.9785    0.0000 O   0  0  0  0  0  0  0  0  0  0  0  0
   -5.9538  -10.8044    0.0000 O   0  0  0  0  0  0  0  0  0  0  0  0
   -5.2674   -6.9840    0.0000 C   0  0  0  0  0  0  0  0  0  0  0  0
   -4.5802   -6.2575    0.0000 S   0  0  0  0  0  0  0  0  0  0  0  0
   -4.8658   -5.2992    0.0000 C   0  0  0  0  0  0  0  0  0  0  0  0
   -4.1787   -4.5727    0.0000 C   0  0  0  0  0  0  0  0  0  0  0  0
   -4.4642   -3.6143    0.0000 C   0  0  0  0  0  0  0  0  0  0  0  0
   -5.4370   -3.3825    0.0000 O   0  0  0  0  0  0  0  0  0  0  0  0
   -3.7771   -2.8878    0.0000 O   0  0  0  0  0  0  0  0  0  0  0  0
    1.1227    0.9185    0.0000 H   0  0  0  0  0  0  0  0  0  0  0  0
    4.9855    0.7204    0.0000 H   0  0  0  0  0  0  0  0  0  0  0  0
    5.0835   -1.3685    0.0000 H   0  0  0  0  0  0  0  0  0  0  0  0
    3.9027   -3.8014    0.0000 H   0  0  0  0  0  0  0  0  0  0  0  0
    3.4622   -6.2213    0.0000 H   0  0  0  0  0  0  0  0  0  0  0  0
    1.3691   -7.2883    0.0000 H   0  0  0  0  0  0  0  0  0  0  0  0
   -2.1581   -8.5657    0.0000 H   0  0  0  0  0  0  0  0  0  0  0  0
   -2.6840   -8.5983    0.0000 H   0  0  0  0  0  0  0  0  0  0  0  0
   -6.5563   -9.6828    0.0000 H   0  0  0  0  0  0  0  0  0  0  0  0
   -6.3461   -7.5117    0.0000 H   0  0  0  0  0  0  0  0  0  0  0  0
   -9.4822   -4.9978    0.0000 H   0  0  0  0  0  0  0  0  0  0  0  0
   -7.6502   -4.1366    0.0000 H   0  0  0  0  0  0  0  0  0  0  0  0
   -5.6908   -1.2103    0.0000 H   0  0  0  0  0  0  0  0  0  0  0  0
   -3.6998    0.4728    0.0000 H   0  0  0  0  0  0  0  0  0  0  0  0
   -1.4876    0.3213    0.0000 H   0  0  0  0  0  0  0  0  0  0  0  0
    0.6134    1.0166    0.0000 H   0  0  0  0  0  0  0  0  0  0  0  0
  1  2  1  0  0  0  0
  2  3  1  0  0  0  0
  3  4  1  0  0  0  0
  4  5  1  0  0  0  0
  5  6  2  0  0  0  0
  5  7  1  0  0  0  0
  8  1  1  1  0  0  0
  8 80  1  0  0  0  0
  8  9  1  0  0  0  0
  9 82  1  0  0  0  0
  9 10  1  0  0  0  0
 10 11  1  0  0  0  0
 11 23  1  0  0  0  0
 11 12  1  0  0  0  0
 12 13  1  0  0  0  0
 13 14  1  1  0  0  0
 14 15  1  0  0  0  0
 15 16  1  0  0  0  0
 16 17  1  0  0  0  0
 17 18  1  0  0  0  0
 18 19  2  0  0  0  0
 18 20  1  0  0  0  0
 13 21  1  0  0  0  0
 21 22  1  0  0  0  0
 22 23  1  0  0  0  0
 23 24  1  6  0  0  0
 22 25  1  1  0  0  0
 21 26  1  0  0  0  0
 26 27  1  0  0  0  0
 27 39  1  0  0  0  0
 27 28  1  0  0  0  0
 28 29  1  0  0  0  0
 29 30  1  1  0  0  0
 30 31  1  0  0  0  0
 31 32  1  0  0  0  0
 32 33  1  0  0  0  0
 33 34  1  0  0  0  0
 34 35  2  0  0  0  0
 34 36  1  0  0  0  0
 29 37  1  0  0  0  0
 37 38  1  0  0  0  0
 38 39  1  0  0  0  0
 39 40  1  6  0  0  0
 38 41  1  1  0  0  0
 37 42  1  0  0  0  0
 42 43  1  0  0  0  0
 43 55  1  0  0  0  0
 43 44  1  0  0  0  0
 44 45  1  0  0  0  0
 45 46  1  1  0  0  0
 46 47  1  0  0  0  0
 47 48  1  0  0  0  0
 48 49  1  0  0  0  0
 49 50  1  0  0  0  0
 50 51  2  0  0  0  0
 50 52  1  0  0  0  0
 45 53  1  0  0  0  0
 53 54  1  0  0  0  0
 54 55  1  0  0  0  0
 55 56  1  6  0  0  0
 54 57  1  1  0  0  0
 53 58  1  0  0  0  0
 58 59  1  0  0  0  0
 59119  1  0  0  0  0
 59 60  1  0  0  0  0
 60 61  1  0  0  0  0
 61 62  1  0  0  0  0
 62 63  1  0  0  0  0
 63 64  1  0  0  0  0
 64109  1  0  0  0  0
 64 65  1  0  0  0  0
 65 66  1  0  0  0  0
 66 67  1  0  0  0  0
 67 68  1  0  0  0  0
 68 69  1  0  0  0  0
 69 98  1  0  0  0  0
 69 70  1  0  0  0  0
 70 71  1  0  0  0  0
 71 72  1  0  0  0  0
 72 73  1  0  0  0  0
 73 74  1  0  0  0  0
 74 87  1  0  0  0  0
 74 75  1  0  0  0  0
 75 76  1  0  0  0  0
 76 77  1  0  0  0  0
 77 78  1  0  0  0  0
 78 79  1  0  0  0  0
 79 80  1  0  0  0  0
 79 81  1  0  0  0  0
 81 82  1  0  0  0  0
 82 83  1  1  0  0  0
 81 84  1  6  0  0  0
 77 85  1  0  0  0  0
 85 86  1  1  0  0  0
 85 87  1  0  0  0  0
 87 88  1  6  0  0  0
 76 89  1  0  0  0  0
 89 90  1  0  0  0  0
 90 91  1  0  0  0  0
 91 92  1  0  0  0  0
 92 93  1  0  0  0  0
 93 94  2  0  0  0  0
 93 95  1  0  0  0  0
 72 96  1  0  0  0  0
 96 97  1  1  0  0  0
 96 98  1  0  0  0  0
 98 99  1  6  0  0  0
 71100  1  1  0  0  0
100101  1  0  0  0  0
101102  1  0  0  0  0
102103  1  0  0  0  0
103104  1  0  0  0  0
104105  2  0  0  0  0
104106  1  0  0  0  0
 67107  1  0  0  0  0
107108  1  1  0  0  0
107109  1  0  0  0  0
109110  1  6  0  0  0
 66111  1  1  0  0  0
111112  1  0  0  0  0
112113  1  0  0  0  0
113114  1  0  0  0  0
114115  1  0  0  0  0
115116  2  0  0  0  0
115117  1  0  0  0  0
 62118  1  0  0  0  0
118119  1  0  0  0  0
119120  1  6  0  0  0
118121  1  1  0  0  0
 61122  1  1  0  0  0
122123  1  0  0  0  0
123124  1  0  0  0  0
124125  1  0  0  0  0
125126  1  0  0  0  0
126127  2  0  0  0  0
126128  1  0  0  0  0
  9129  1  1  0  0  0
 11130  1  1  0  0  0
 21131  1  1  0  0  0
 27132  1  1  0  0  0
 37133  1  1  0  0  0
 43134  1  1  0  0  0
 53135  1  1  0  0  0
 59136  1  1  0  0  0
 62137  1  1  0  0  0
 64138  1  1  0  0  0
 67139  1  1  0  0  0
 69140  1  1  0  0  0
 72141  1  1  0  0  0
 74142  1  1  0  0  0
 77143  1  1  0  0  0
 79144  1  1  0  0  0
M  END
>  <Name>
Sugammadex

>  <CAS #>
343306-71-8

>  <human Clearance (mL/min/kg)>
1.3

>  <Primary mechanism (metabolic, biliary or renal)>
renal

>  <seqId>
849.0

>  <Code (mechanism and clearance degree index)>
R1

>  < Five M1 and R1 test groups>
R1_5

>  <formamide>
0

>  <prodrug phosphates>
0

>  <VolSurf_V>
3133.0

>  <VolSurf_S>
1658.51

>  <VolSurf_R>
1.88904

>  <VolSurf_G>
2.02718

>  <VolSurf_IW1>
0.0192435

>  <VolSurf_IW2>
0.0331488

>  <VolSurf_IW3>
0.0793245

>  <VolSurf_IW4>
0.146349

>  <VolSurf_ID1>
0.0144651

>  <VolSurf_ID2>
0.0277999

>  <VolSurf_ID3>
0.107268

>  <VolSurf_ID4>
0.1435

>  <VolSurf_HL1>
51.1805

>  <VolSurf_HL2>
95.0465

>  <VolSurf_A>
4.70869

>  <VolSurf_CP>
0.0465003

>  <VolSurf_POL>
171.367

>  <VolSurf_MW>
2002.15

>  <VolSurf_FLEX>
2.76013

>  <VolSurf_FLEX_RB>
0.0431271

>  <VolSurf_NCC>
0.0

>  <VolSurf_LOGP n-Oct>
-9.0

>  <VolSurf_LOGP c-Hex>
-9.0

>  <VolSurf_PSA>
916.72

>  <VolSurf_HSA>
741.795

>  <VolSurf_PSAR>
0.552736

>  <VolSurf_PHSAR>
1.23581

>  <VolSurf_LgD5>
-9.0

>  <VolSurf_LgD6>
-9.0

>  <VolSurf_LgD7>
-9.0

>  <VolSurf_LgD7.5>
-9.0

>  <VolSurf_LgD8>
-9.0

>  <VolSurf_LgD9>
-9.0

>  <VolSurf_LgD10>
-9.0

>  <VolSurf_AUS7.4>
1.73477

>  <VolSurf_%FU4>
99.9748

>  <VolSurf_%FU5>
99.7486

>  <VolSurf_%FU6>
97.5181

>  <VolSurf_%FU7>
77.9725

>  <VolSurf_%FU8>
4.36304

>  <VolSurf_%FU9>
3.24687E-7

>  <VolSurf_%FU10>
3.57053E-15

>  <ID>
406

>  <MOKAID>
407

>  <Clearance Route>
possible billary

>  <PC1>
-11.1783

>  <PC2>
-11.5206

$$$$
Sulbactam
  -OEChem-08301611272D

 15 16  0     1  0  0  0  0  0999 V2000
    3.8398    0.6707    0.0000 C   0  0  0  0  0  0  0  0  0  0  0  0
    2.5392   -0.5002    0.0000 C   0  0  0  0  0  0  0  0  0  0  0  0
    3.2822   -1.1694    0.0000 C   0  0  0  0  0  0  0  0  0  0  0  0
    1.9511   -1.3093    0.0000 C   0  0  3  0  0  0  0  0  0  0  0  0
    1.0000   -1.0001    0.0000 N   0  0  0  0  0  0  0  0  0  0  0  0
    1.0001    0.0000    0.0000 C   0  0  3  0  0  0  0  0  0  0  0  0
    0.0000    0.0000    0.0000 C   0  0  0  0  0  0  0  0  0  0  0  0
    0.0000   -1.0001    0.0000 C   0  0  0  0  0  0  0  0  0  0  0  0
   -0.7071   -1.7072    0.0000 O   0  0  0  0  0  0  0  0  0  0  0  0
    1.9514    0.3089    0.0000 S   0  0  0  0  0  0  0  0  0  0  0  0
    1.5448    1.2225    0.0000 O   0  0  0  0  0  0  0  0  0  0  0  0
    2.8175    0.8088    0.0000 O   0  0  0  0  0  0  0  0  0  0  0  0
    2.2599   -2.2604    0.0000 C   0  0  0  0  0  0  0  0  0  0  0  0
    1.5907   -3.0034    0.0000 O   0  0  0  0  0  0  0  0  0  0  0  0
    3.2381   -2.4685    0.0000 O   0  0  0  0  0  0  0  0  0  0  0  0
  1  2  1  0  0  0  0
  2 10  1  0  0  0  0
  2  3  1  0  0  0  0
  2  4  1  0  0  0  0
  4  5  1  0  0  0  0
  5  8  1  0  0  0  0
  5  6  1  0  0  0  0
  6  7  1  0  0  0  0
  7  8  1  0  0  0  0
  8  9  2  0  0  0  0
  6 10  1  0  0  0  0
 10 11  2  0  0  0  0
 10 12  2  0  0  0  0
  4 13  1  0  0  0  0
 13 14  2  0  0  0  0
 13 15  1  0  0  0  0
M  END
>  <Name>
Sulbactam

>  <CAS #>
68373-14-8

>  <human Clearance (mL/min/kg)>
5.1

>  <Primary mechanism (metabolic, biliary or renal)>
renal

>  <seqId>
850.0

>  <Code (mechanism and clearance degree index)>
R1

>  < Five M1 and R1 test groups>
R1_5

>  <formamide>
0

>  <prodrug phosphates>
0

>  <VolSurf_V>
454.75

>  <VolSurf_S>
323.471

>  <VolSurf_R>
1.40584

>  <VolSurf_G>
1.20297

>  <VolSurf_IW1>
0.115642

>  <VolSurf_IW2>
0.224985

>  <VolSurf_IW3>
0.666114

>  <VolSurf_IW4>
1.43612

>  <VolSurf_ID1>
0.042532

>  <VolSurf_ID2>
0.192365

>  <VolSurf_ID3>
0.507871

>  <VolSurf_ID4>
0.507871

>  <VolSurf_HL1>
97.6154

>  <VolSurf_HL2>
146.75

>  <VolSurf_A>
5.09144

>  <VolSurf_CP>
0.0132705

>  <VolSurf_POL>
19.568

>  <VolSurf_MW>
232.234

>  <VolSurf_FLEX>
0.226488

>  <VolSurf_FLEX_RB>
0.0754961

>  <VolSurf_NCC>
1.0

>  <VolSurf_LOGP n-Oct>
-0.249

>  <VolSurf_LOGP c-Hex>
-2.76

>  <VolSurf_PSA>
108.362

>  <VolSurf_HSA>
215.109

>  <VolSurf_PSAR>
0.334999

>  <VolSurf_PHSAR>
0.503757

>  <VolSurf_LgD5>
-2.12234

>  <VolSurf_LgD6>
-3.03448

>  <VolSurf_LgD7>
-3.5971

>  <VolSurf_LgD7.5>
-3.69499

>  <VolSurf_LgD8>
-3.73118

>  <VolSurf_LgD9>
-3.74718

>  <VolSurf_LgD10>
-3.74882

>  <VolSurf_AUS7.4>
0.0

>  <VolSurf_%FU4>
11.6977

>  <VolSurf_%FU5>
1.30741

>  <VolSurf_%FU6>
0.132298

>  <VolSurf_%FU7>
0.0132456

>  <VolSurf_%FU8>
0.00132471

>  <VolSurf_%FU9>
1.32473E-4

>  <VolSurf_%FU10>
1.32473E-5

>  <ID>
407

>  <MOKAID>
408

>  <Clearance Route>
renal

>  <PC1>
-3.0472200000000003

>  <PC2>
4.22121

$$$$
Sulbenicillin
  -OEChem-08301611272D

 28 30  0     1  0  0  0  0  0999 V2000
    3.2824    0.1689    0.0000 C   0  0  0  0  0  0  0  0  0  0  0  0
    2.5392   -0.5002    0.0000 C   0  0  0  0  0  0  0  0  0  0  0  0
    3.2822   -1.1694    0.0000 C   0  0  0  0  0  0  0  0  0  0  0  0
    1.9514    0.3089    0.0000 S   0  0  0  0  0  0  0  0  0  0  0  0
    1.0001    0.0000    0.0000 C   0  0  2  0  0  0  0  0  0  0  0  0
    0.0000    0.0000    0.0000 C   0  0  2  0  0  0  0  0  0  0  0  0
   -0.7071    0.7071    0.0000 N   0  0  0  0  0  0  0  0  0  0  0  0
   -1.6730    0.4483    0.0000 C   0  0  0  0  0  0  0  0  0  0  0  0
   -1.9319   -0.5176    0.0000 O   0  0  0  0  0  0  0  0  0  0  0  0
   -2.3801    1.1554    0.0000 C   0  0  1  0  0  0  0  0  0  0  0  0
   -3.3461    0.8966    0.0000 C   0  0  0  0  0  0  0  0  0  0  0  0
   -3.6034   -0.0751    0.0000 C   0  0  0  0  0  0  0  0  0  0  0  0
   -4.5693   -0.3340    0.0000 C   0  0  0  0  0  0  0  0  0  0  0  0
   -5.2806    0.3690    0.0000 C   0  0  0  0  0  0  0  0  0  0  0  0
   -5.0233    1.3407    0.0000 C   0  0  0  0  0  0  0  0  0  0  0  0
   -4.0547    1.6094    0.0000 C   0  0  0  0  0  0  0  0  0  0  0  0
   -2.1213    2.1213    0.0000 S   0  0  0  0  0  0  0  0  0  0  0  0
   -3.0872    2.3801    0.0000 O   0  0  0  0  0  0  0  0  0  0  0  0
   -1.1554    1.8625    0.0000 O   0  0  0  0  0  0  0  0  0  0  0  0
   -1.8625    3.0872    0.0000 O   0  0  0  0  0  0  0  0  0  0  0  0
   -0.0000   -1.0001    0.0000 C   0  0  0  0  0  0  0  0  0  0  0  0
   -0.7071   -1.7072    0.0000 O   0  0  0  0  0  0  0  0  0  0  0  0
    1.0000   -1.0001    0.0000 N   0  0  0  0  0  0  0  0  0  0  0  0
    1.9511   -1.3093    0.0000 C   0  0  1  0  0  0  0  0  0  0  0  0
    2.2599   -2.2604    0.0000 C   0  0  0  0  0  0  0  0  0  0  0  0
    1.5907   -3.0034    0.0000 O   0  0  0  0  0  0  0  0  0  0  0  0
    3.2381   -2.4685    0.0000 O   0  0  0  0  0  0  0  0  0  0  0  0
    0.8438    0.9877    0.0000 H   0  0  0  0  0  0  0  0  0  0  0  0
  1  2  1  0  0  0  0
  2 24  1  0  0  0  0
  2  3  1  0  0  0  0
  2  4  1  0  0  0  0
  4  5  1  0  0  0  0
  5 23  1  0  0  0  0
  5  6  1  0  0  0  0
  6  7  1  1  0  0  0
  7  8  1  0  0  0  0
  8  9  2  0  0  0  0
 10  8  1  1  0  0  0
 10 11  1  0  0  0  0
 11 16  2  0  0  0  0
 11 12  1  0  0  0  0
 12 13  2  0  0  0  0
 13 14  1  0  0  0  0
 14 15  2  0  0  0  0
 15 16  1  0  0  0  0
 10 17  1  0  0  0  0
 17 18  2  0  0  0  0
 17 19  2  0  0  0  0
 17 20  1  0  0  0  0
  6 21  1  0  0  0  0
 21 22  2  0  0  0  0
 21 23  1  0  0  0  0
 23 24  1  0  0  0  0
 24 25  1  6  0  0  0
 25 26  2  0  0  0  0
 25 27  1  0  0  0  0
  5 28  1  6  0  0  0
M  END
>  <Name>
Sulbenicillin

>  <CAS #>
41744-40-5

>  <human Clearance (mL/min/kg)>
1.6

>  <Primary mechanism (metabolic, biliary or renal)>
renal

>  <seqId>
851.0

>  <Code (mechanism and clearance degree index)>
R1

>  < Five M1 and R1 test groups>
R1_3

>  <formamide>
0

>  <prodrug phosphates>
0

>  <VolSurf_V>
789.375

>  <VolSurf_S>
519.853

>  <VolSurf_R>
1.51846

>  <VolSurf_G>
1.41192

>  <VolSurf_IW1>
0.075916

>  <VolSurf_IW2>
0.157199

>  <VolSurf_IW3>
0.374955

>  <VolSurf_IW4>
1.00308

>  <VolSurf_ID1>
0.0646299

>  <VolSurf_ID2>
0.155037

>  <VolSurf_ID3>
0.265361

>  <VolSurf_ID4>
0.319477

>  <VolSurf_HL1>
16.8318

>  <VolSurf_HL2>
17.3

>  <VolSurf_A>
4.75217

>  <VolSurf_CP>
0.0769599

>  <VolSurf_POL>
37.12

>  <VolSurf_MW>
412.437

>  <VolSurf_FLEX>
2.34194

>  <VolSurf_FLEX_RB>
0.334563

>  <VolSurf_NCC>
2.0

>  <VolSurf_LOGP n-Oct>
0.592

>  <VolSurf_LOGP c-Hex>
-5.037

>  <VolSurf_PSA>
166.66

>  <VolSurf_HSA>
353.193

>  <VolSurf_PSAR>
0.320591

>  <VolSurf_PHSAR>
0.471867

>  <VolSurf_LgD5>
-4.5311

>  <VolSurf_LgD6>
-4.64755

>  <VolSurf_LgD7>
-4.68755

>  <VolSurf_LgD7.5>
-4.74771

>  <VolSurf_LgD8>
-4.88927

>  <VolSurf_LgD9>
-5.42217

>  <VolSurf_LgD10>
-5.7566

>  <VolSurf_AUS7.4>
0.0

>  <VolSurf_%FU4>
0.00132617

>  <VolSurf_%FU5>
1.39338E-5

>  <VolSurf_%FU6>
1.39063E-7

>  <VolSurf_%FU7>
1.29901E-9

>  <VolSurf_%FU8>
7.80838E-12

>  <VolSurf_%FU9>
1.56504E-14

>  <VolSurf_%FU10>
1.73976E-17

>  <ID>
408

>  <MOKAID>
409

>  <Clearance Route>
renal

>  <PC1>
-4.6363900000000005

>  <PC2>
0.189167

$$$$
Sulpiride
  -OEChem-08301611272D

 23 24  0     1  0  0  0  0  0999 V2000
    4.7007    0.2268    0.0000 C   0  0  0  0  0  0  0  0  0  0  0  0
    4.4874   -0.7555    0.0000 C   0  0  0  0  0  0  0  0  0  0  0  0
    5.2296   -1.4257    0.0000 C   0  0  0  0  0  0  0  0  0  0  0  0
    6.1829   -1.1236    0.0000 C   0  0  0  0  0  0  0  0  0  0  0  0
    6.3962   -0.1413    0.0000 C   0  0  0  0  0  0  0  0  0  0  0  0
    5.6561    0.5389    0.0000 C   0  0  0  0  0  0  0  0  0  0  0  0
    7.3495    0.1607    0.0000 S   0  0  0  0  0  0  0  0  0  0  0  0
    7.0474    1.1140    0.0000 O   0  0  0  0  0  0  0  0  0  0  0  0
    7.6515   -0.7926    0.0000 O   0  0  0  0  0  0  0  0  0  0  0  0
    8.3028    0.4628    0.0000 N   0  0  0  0  0  0  0  0  0  0  0  0
    3.5354   -1.0617    0.0000 O   0  0  0  0  0  0  0  0  0  0  0  0
    3.3246   -2.0392    0.0000 C   0  0  0  0  0  0  0  0  0  0  0  0
    3.9585    0.8970    0.0000 C   0  0  0  0  0  0  0  0  0  0  0  0
    3.0070    0.5894    0.0000 N   0  0  0  0  0  0  0  0  0  0  0  0
    2.2648    1.2596    0.0000 C   0  0  0  0  0  0  0  0  0  0  0  0
    1.3133    0.9519    0.0000 C   0  0  2  0  0  0  0  0  0  0  0  0
    0.5008    1.5428    0.0000 N   0  0  1  0  0  0  0  0  0  0  0  0
   -0.3065    0.9519    0.0000 C   0  0  0  0  0  0  0  0  0  0  0  0
    0.0000    0.0000    0.0000 C   0  0  0  0  0  0  0  0  0  0  0  0
    1.0015    0.0000    0.0000 C   0  0  0  0  0  0  0  0  0  0  0  0
    0.4993    2.5428    0.0000 C   0  0  0  0  0  0  0  0  0  0  0  0
   -0.3675    3.0415    0.0000 C   0  0  0  0  0  0  0  0  0  0  0  0
    4.1678    1.8749    0.0000 O   0  0  0  0  0  0  0  0  0  0  0  0
  1  6  2  0  0  0  0
  1  2  1  0  0  0  0
  2  3  2  0  0  0  0
  3  4  1  0  0  0  0
  4  5  2  0  0  0  0
  5  6  1  0  0  0  0
  5  7  1  0  0  0  0
  7  8  2  0  0  0  0
  7  9  2  0  0  0  0
  7 10  1  0  0  0  0
  2 11  1  0  0  0  0
 11 12  1  0  0  0  0
  1 13  1  0  0  0  0
 13 14  1  0  0  0  0
 14 15  1  0  0  0  0
 16 15  1  1  0  0  0
 16 20  1  0  0  0  0
 16 17  1  0  0  0  0
 17 18  1  0  0  0  0
 18 19  1  0  0  0  0
 19 20  1  0  0  0  0
 17 21  1  1  0  0  0
 21 22  1  0  0  0  0
 13 23  2  0  0  0  0
M  END
>  <Name>
Sulpiride

>  <CAS #>
15676-16-1

>  <human Clearance (mL/min/kg)>
1.9

>  <Primary mechanism (metabolic, biliary or renal)>
renal

>  <seqId>
858.0

>  <Code (mechanism and clearance degree index)>
R1

>  < Five M1 and R1 test groups>
R1_3

>  <formamide>
0

>  <prodrug phosphates>
0

>  <VolSurf_V>
738.25

>  <VolSurf_S>
511.318

>  <VolSurf_R>
1.44382

>  <VolSurf_G>
1.47267

>  <VolSurf_IW1>
0.120262

>  <VolSurf_IW2>
0.253915

>  <VolSurf_IW3>
0.454368

>  <VolSurf_IW4>
0.941058

>  <VolSurf_ID1>
0.0666568

>  <VolSurf_ID2>
0.105578

>  <VolSurf_ID3>
0.252591

>  <VolSurf_ID4>
0.345412

>  <VolSurf_HL1>
13.6056

>  <VolSurf_HL2>
9.88889

>  <VolSurf_A>
3.88583

>  <VolSurf_CP>
0.110508

>  <VolSurf_POL>
37.109

>  <VolSurf_MW>
342.434

>  <VolSurf_FLEX>
1.64371

>  <VolSurf_FLEX_RB>
0.182634

>  <VolSurf_NCC>
1.0

>  <VolSurf_LOGP n-Oct>
0.703

>  <VolSurf_LOGP c-Hex>
-1.73

>  <VolSurf_PSA>
120.122

>  <VolSurf_HSA>
391.195

>  <VolSurf_PSAR>
0.234927

>  <VolSurf_PHSAR>
0.307065

>  <VolSurf_LgD5>
-2.12185

>  <VolSurf_LgD6>
-1.85467

>  <VolSurf_LgD7>
-1.11187

>  <VolSurf_LgD7.5>
-0.651702

>  <VolSurf_LgD8>
-0.200686

>  <VolSurf_LgD9>
0.391691

>  <VolSurf_LgD10>
0.0468003

>  <VolSurf_AUS7.4>
0.616775

>  <VolSurf_%FU4>
0.00141778

>  <VolSurf_%FU5>
0.014176

>  <VolSurf_%FU6>
0.141579

>  <VolSurf_%FU7>
1.39791

>  <VolSurf_%FU8>
12.3645

>  <VolSurf_%FU9>
48.7786

>  <VolSurf_%FU10>
22.0438

>  <ID>
409

>  <MOKAID>
410

>  <Clearance Route>
uncertain

>  <PC1>
-0.69919

>  <PC2>
0.799502

$$$$
Suprofen
  -OEChem-08301611272D

 18 19  0     1  0  0  0  0  0999 V2000
    5.1858   -1.1244    0.0000 C   0  0  0  0  0  0  0  0  0  0  0  0
    4.2330   -1.4278    0.0000 C   0  0  3  0  0  0  0  0  0  0  0  0
    4.0194   -2.4047    0.0000 C   0  0  0  0  0  0  0  0  0  0  0  0
    3.0666   -2.7082    0.0000 O   0  0  0  0  0  0  0  0  0  0  0  0
    4.7586   -3.0782    0.0000 O   0  0  0  0  0  0  0  0  0  0  0  0
    3.4938   -0.7544    0.0000 C   0  0  0  0  0  0  0  0  0  0  0  0
    2.5369   -1.0622    0.0000 C   0  0  0  0  0  0  0  0  0  0  0  0
    1.7976   -0.3888    0.0000 C   0  0  0  0  0  0  0  0  0  0  0  0
    2.0055    0.5894    0.0000 C   0  0  0  0  0  0  0  0  0  0  0  0
    2.9624    0.8972    0.0000 C   0  0  0  0  0  0  0  0  0  0  0  0
    3.7114    0.2269    0.0000 C   0  0  0  0  0  0  0  0  0  0  0  0
    1.2633    1.2596    0.0000 C   0  0  0  0  0  0  0  0  0  0  0  0
    1.4726    2.2374    0.0000 O   0  0  0  0  0  0  0  0  0  0  0  0
    0.3118    0.9519    0.0000 C   0  0  0  0  0  0  0  0  0  0  0  0
    0.0000    0.0000    0.0000 C   0  0  0  0  0  0  0  0  0  0  0  0
   -1.0015    0.0000    0.0000 C   0  0  0  0  0  0  0  0  0  0  0  0
   -1.3080    0.9519    0.0000 C   0  0  0  0  0  0  0  0  0  0  0  0
   -0.5007    1.5428    0.0000 S   0  0  0  0  0  0  0  0  0  0  0  0
  1  2  1  0  0  0  0
  2  3  1  0  0  0  0
  3  4  2  0  0  0  0
  3  5  1  0  0  0  0
  2  6  1  0  0  0  0
  6 11  2  0  0  0  0
  6  7  1  0  0  0  0
  7  8  2  0  0  0  0
  8  9  1  0  0  0  0
  9 10  2  0  0  0  0
 10 11  1  0  0  0  0
  9 12  1  0  0  0  0
 12 13  2  0  0  0  0
 12 14  1  0  0  0  0
 14 18  1  0  0  0  0
 14 15  2  0  0  0  0
 15 16  1  0  0  0  0
 16 17  2  0  0  0  0
 17 18  1  0  0  0  0
M  END
>  <Name>
Suprofen

>  <CAS #>
40828-46-4

>  <human Clearance (mL/min/kg)>
0.76

>  <Primary mechanism (metabolic, biliary or renal)>
metabolic

>  <seqId>
860.0

>  <Code (mechanism and clearance degree index)>
M1

>  < Five M1 and R1 test groups>
M1_2

>  <formamide>
0

>  <prodrug phosphates>
0

>  <VolSurf_V>
570.875

>  <VolSurf_S>
409.903

>  <VolSurf_R>
1.39271

>  <VolSurf_G>
1.36696

>  <VolSurf_IW1>
0.0798374

>  <VolSurf_IW2>
0.21518

>  <VolSurf_IW3>
0.590357

>  <VolSurf_IW4>
0.915298

>  <VolSurf_ID1>
0.0681829

>  <VolSurf_ID2>
0.108921

>  <VolSurf_ID3>
0.139939

>  <VolSurf_ID4>
0.208936

>  <VolSurf_HL1>
3.24573

>  <VolSurf_HL2>
2.88202

>  <VolSurf_A>
4.17041

>  <VolSurf_CP>
0.669592

>  <VolSurf_POL>
26.567

>  <VolSurf_MW>
259.3

>  <VolSurf_FLEX>
0.914198

>  <VolSurf_FLEX_RB>
0.18284

>  <VolSurf_NCC>
1.0

>  <VolSurf_LOGP n-Oct>
2.676

>  <VolSurf_LOGP c-Hex>
0.017

>  <VolSurf_PSA>
74.96

>  <VolSurf_HSA>
334.943

>  <VolSurf_PSAR>
0.182872

>  <VolSurf_PHSAR>
0.223799

>  <VolSurf_LgD5>
1.78335

>  <VolSurf_LgD6>
0.848195

>  <VolSurf_LgD7>
-0.0426728

>  <VolSurf_LgD7.5>
-0.363471

>  <VolSurf_LgD8>
-0.547984

>  <VolSurf_LgD9>
-0.656134

>  <VolSurf_LgD10>
-0.668593

>  <VolSurf_AUS7.4>
0.0

>  <VolSurf_%FU4>
59.4036

>  <VolSurf_%FU5>
12.7649

>  <VolSurf_%FU6>
1.44217

>  <VolSurf_%FU7>
0.146113

>  <VolSurf_%FU8>
0.0146306

>  <VolSurf_%FU9>
0.00146325

>  <VolSurf_%FU10>
1.46327E-4

>  <ID>
410

>  <MOKAID>
411

>  <Clearance Route>
uncertain

>  <PC1>
0.209619

>  <PC2>
1.31276

$$$$
Suramin
  -OEChem-08301611272D

 86 93  0     0  0  0  0  0  0999 V2000
    0.8878    9.3005    0.0000 C   0  0  0  0  0  0  0  0  0  0  0  0
    1.7517    9.8043    0.0000 C   0  0  0  0  0  0  0  0  0  0  0  0
    2.6206    9.3094    0.0000 C   0  0  0  0  0  0  0  0  0  0  0  0
    3.4866    9.8094    0.0000 C   0  0  0  0  0  0  0  0  0  0  0  0
    3.4837   10.8146    0.0000 C   0  0  0  0  0  0  0  0  0  0  0  0
    2.6147   11.3198    0.0000 C   0  0  0  0  0  0  0  0  0  0  0  0
    1.7487   10.8095    0.0000 C   0  0  0  0  0  0  0  0  0  0  0  0
    0.8797   11.3044    0.0000 N   0  0  0  0  0  0  0  0  0  0  0  0
    0.0167   10.7993    0.0000 C   0  0  0  0  0  0  0  0  0  0  0  0
    0.0226    9.7993    0.0000 O   0  0  0  0  0  0  0  0  0  0  0  0
   -0.8523   11.2942    0.0000 C   0  0  0  0  0  0  0  0  0  0  0  0
   -0.8553   12.2994    0.0000 C   0  0  0  0  0  0  0  0  0  0  0  0
   -1.7242   12.7943    0.0000 C   0  0  0  0  0  0  0  0  0  0  0  0
   -2.5903   12.2942    0.0000 C   0  0  0  0  0  0  0  0  0  0  0  0
   -2.5873   11.2890    0.0000 C   0  0  0  0  0  0  0  0  0  0  0  0
   -3.4533   10.7890    0.0000 N   0  0  0  0  0  0  0  0  0  0  0  0
   -3.4533    9.7890    0.0000 C   0  0  0  0  0  0  0  0  0  0  0  0
   -2.5873    9.2890    0.0000 O   0  0  0  0  0  0  0  0  0  0  0  0
   -4.3193    9.2890    0.0000 N   0  0  0  0  0  0  0  0  0  0  0  0
   -4.3193    8.2890    0.0000 C   0  0  0  0  0  0  0  0  0  0  0  0
   -5.1913    7.7890    0.0000 C   0  0  0  0  0  0  0  0  0  0  0  0
   -5.1914    6.7890    0.0000 C   0  0  0  0  0  0  0  0  0  0  0  0
   -4.3283    6.2839    0.0000 C   0  0  0  0  0  0  0  0  0  0  0  0
   -3.4563    6.7839    0.0000 C   0  0  0  0  0  0  0  0  0  0  0  0
   -3.4474    7.7890    0.0000 C   0  0  0  0  0  0  0  0  0  0  0  0
   -2.5932    6.2788    0.0000 C   0  0  0  0  0  0  0  0  0  0  0  0
   -2.5991    5.2788    0.0000 O   0  0  0  0  0  0  0  0  0  0  0  0
   -1.7242    6.7737    0.0000 N   0  0  0  0  0  0  0  0  0  0  0  0
   -0.8612    6.2686    0.0000 C   0  0  0  0  0  0  0  0  0  0  0  0
   -0.8701    5.2635    0.0000 C   0  0  0  0  0  0  0  0  0  0  0  0
    0.0019    4.7635    0.0000 C   0  0  0  0  0  0  0  0  0  0  0  0
    0.8739    5.2635    0.0000 C   0  0  0  0  0  0  0  0  0  0  0  0
    0.8739    6.2636    0.0000 C   0  0  0  0  0  0  0  0  0  0  0  0
    0.0108    6.7686    0.0000 C   0  0  0  0  0  0  0  0  0  0  0  0
    0.0152    7.7686    0.0000 C   0  0  0  0  0  0  0  0  0  0  0  0
    0.0019    3.7635    0.0000 C   0  0  0  0  0  0  0  0  0  0  0  0
   -0.8642    3.2635    0.0000 O   0  0  0  0  0  0  0  0  0  0  0  0
    0.8679    3.2635    0.0000 N   0  0  0  0  0  0  0  0  0  0  0  0
    0.8679    1.5135    0.0000 C   0  0  0  0  0  0  0  0  0  0  0  0
    0.0000    1.0057    0.0000 C   0  0  0  0  0  0  0  0  0  0  0  0
    0.0000    0.0000    0.0000 C   0  0  0  0  0  0  0  0  0  0  0  0
    0.8679   -0.4978    0.0000 C   0  0  0  0  0  0  0  0  0  0  0  0
    1.7371   -0.0000    0.0000 C   0  0  0  0  0  0  0  0  0  0  0  0
    2.6038   -0.4989    0.0000 C   0  0  0  0  0  0  0  0  0  0  0  0
    3.4748    0.0022    0.0000 C   0  0  0  0  0  0  0  0  0  0  0  0
    3.4735    1.0079    0.0000 C   0  0  0  0  0  0  0  0  0  0  0  0
    2.6012    1.5124    0.0000 C   0  0  0  0  0  0  0  0  0  0  0  0
    1.7358    1.0057    0.0000 C   0  0  0  0  0  0  0  0  0  0  0  0
    2.5985    2.5124    0.0000 S   0  0  0  0  0  0  0  0  0  0  0  0
    1.5985    2.5097    0.0000 O   0  0  0  0  0  0  0  0  0  0  0  0
    3.5985    2.5151    0.0000 O   0  0  0  0  0  0  0  0  0  0  0  0
    2.5959    3.5124    0.0000 O   0  0  0  0  0  0  0  0  0  0  0  0
    4.3408   -0.4979    0.0000 S   0  0  0  0  0  0  0  0  0  0  0  0
    4.8409    0.3681    0.0000 O   0  0  0  0  0  0  0  0  0  0  0  0
    3.8407   -1.3639    0.0000 O   0  0  0  0  0  0  0  0  0  0  0  0
    5.2067   -0.9980    0.0000 O   0  0  0  0  0  0  0  0  0  0  0  0
    0.8676   -1.4978    0.0000 S   0  0  0  0  0  0  0  0  0  0  0  0
    1.8676   -1.4981    0.0000 O   0  0  0  0  0  0  0  0  0  0  0  0
   -0.1324   -1.4975    0.0000 O   0  0  0  0  0  0  0  0  0  0  0  0
    0.8673   -2.4978    0.0000 O   0  0  0  0  0  0  0  0  0  0  0  0
   -1.7183   10.7839    0.0000 C   0  0  0  0  0  0  0  0  0  0  0  0
    4.3497   11.3146    0.0000 C   0  0  0  0  0  0  0  0  0  0  0  0
    5.2157   10.8146    0.0000 O   0  0  0  0  0  0  0  0  0  0  0  0
    4.3497   12.3146    0.0000 N   0  0  0  0  0  0  0  0  0  0  0  0
    5.8652   13.1896    0.0000 C   0  0  0  0  0  0  0  0  0  0  0  0
    6.7390   12.6919    0.0000 C   0  0  0  0  0  0  0  0  0  0  0  0
    7.6099   13.1947    0.0000 C   0  0  0  0  0  0  0  0  0  0  0  0
    7.6071   14.1953    0.0000 C   0  0  0  0  0  0  0  0  0  0  0  0
    6.7414   14.6991    0.0000 C   0  0  0  0  0  0  0  0  0  0  0  0
    6.7401   15.6992    0.0000 C   0  0  0  0  0  0  0  0  0  0  0  0
    5.8706   16.2029    0.0000 C   0  0  0  0  0  0  0  0  0  0  0  0
    5.0003   15.6989    0.0000 C   0  0  0  0  0  0  0  0  0  0  0  0
    4.9995   14.6913    0.0000 C   0  0  0  0  0  0  0  0  0  0  0  0
    5.8711   14.1951    0.0000 C   0  0  0  0  0  0  0  0  0  0  0  0
    4.1349   14.1889    0.0000 S   0  0  0  0  0  0  0  0  0  0  0  0
    4.6372   13.3243    0.0000 O   0  0  0  0  0  0  0  0  0  0  0  0
    3.6326   15.0536    0.0000 O   0  0  0  0  0  0  0  0  0  0  0  0
    3.2702   13.6866    0.0000 O   0  0  0  0  0  0  0  0  0  0  0  0
    5.8707   17.2029    0.0000 S   0  0  0  0  0  0  0  0  0  0  0  0
    4.8707   17.2030    0.0000 O   0  0  0  0  0  0  0  0  0  0  0  0
    6.8707   17.2028    0.0000 O   0  0  0  0  0  0  0  0  0  0  0  0
    5.8709   18.2029    0.0000 O   0  0  0  0  0  0  0  0  0  0  0  0
    8.4733   14.6950    0.0000 S   0  0  0  0  0  0  0  0  0  0  0  0
    7.9735   15.5612    0.0000 O   0  0  0  0  0  0  0  0  0  0  0  0
    8.9730   13.8288    0.0000 O   0  0  0  0  0  0  0  0  0  0  0  0
    9.3395   15.1947    0.0000 O   0  0  0  0  0  0  0  0  0  0  0  0
  1  2  1  0  0  0  0
  2  7  2  0  0  0  0
  2  3  1  0  0  0  0
  3  4  2  0  0  0  0
  4  5  1  0  0  0  0
  5  6  2  0  0  0  0
  6  7  1  0  0  0  0
  7  8  1  0  0  0  0
  8  9  1  0  0  0  0
  9 10  2  0  0  0  0
  9 11  1  0  0  0  0
 11 61  2  0  0  0  0
 11 12  1  0  0  0  0
 12 13  2  0  0  0  0
 13 14  1  0  0  0  0
 14 15  2  0  0  0  0
 15 16  1  0  0  0  0
 16 17  1  0  0  0  0
 17 18  2  0  0  0  0
 17 19  1  0  0  0  0
 19 20  1  0  0  0  0
 20 25  2  0  0  0  0
 20 21  1  0  0  0  0
 21 22  2  0  0  0  0
 22 23  1  0  0  0  0
 23 24  2  0  0  0  0
 24 25  1  0  0  0  0
 24 26  1  0  0  0  0
 26 27  2  0  0  0  0
 26 28  1  0  0  0  0
 28 29  1  0  0  0  0
 29 34  2  0  0  0  0
 29 30  1  0  0  0  0
 30 31  2  0  0  0  0
 31 32  1  0  0  0  0
 32 33  2  0  0  0  0
 33 34  1  0  0  0  0
 34 35  1  0  0  0  0
 31 36  1  0  0  0  0
 36 37  2  0  0  0  0
 36 38  1  0  0  0  0
 38 39  1  0  0  0  0
 39 48  2  0  0  0  0
 39 40  1  0  0  0  0
 40 41  2  0  0  0  0
 41 42  1  0  0  0  0
 42 43  2  0  0  0  0
 43 48  1  0  0  0  0
 43 44  1  0  0  0  0
 44 45  2  0  0  0  0
 45 46  1  0  0  0  0
 46 47  2  0  0  0  0
 47 48  1  0  0  0  0
 47 49  1  0  0  0  0
 49 50  2  0  0  0  0
 49 51  2  0  0  0  0
 49 52  1  0  0  0  0
 45 53  1  0  0  0  0
 53 54  2  0  0  0  0
 53 55  2  0  0  0  0
 53 56  1  0  0  0  0
 42 57  1  0  0  0  0
 57 58  2  0  0  0  0
 57 59  2  0  0  0  0
 57 60  1  0  0  0  0
 15 61  1  0  0  0  0
  5 62  1  0  0  0  0
 62 63  2  0  0  0  0
 62 64  1  0  0  0  0
 64 65  1  0  0  0  0
 65 74  2  0  0  0  0
 65 66  1  0  0  0  0
 66 67  2  0  0  0  0
 67 68  1  0  0  0  0
 68 69  2  0  0  0  0
 69 74  1  0  0  0  0
 69 70  1  0  0  0  0
 70 71  2  0  0  0  0
 71 72  1  0  0  0  0
 72 73  2  0  0  0  0
 73 74  1  0  0  0  0
 73 75  1  0  0  0  0
 75 76  2  0  0  0  0
 75 77  2  0  0  0  0
 75 78  1  0  0  0  0
 71 79  1  0  0  0  0
 79 80  2  0  0  0  0
 79 81  2  0  0  0  0
 79 82  1  0  0  0  0
 68 83  1  0  0  0  0
 83 84  2  0  0  0  0
 83 85  2  0  0  0  0
 83 86  1  0  0  0  0
M  END
>  <Name>
Suramin

>  <CAS #>
145-63-1

>  <human Clearance (mL/min/kg)>
0.01

>  <Primary mechanism (metabolic, biliary or renal)>
Renal

>  <seqId>
861.0

>  <Code (mechanism and clearance degree index)>
R1

>  < Five M1 and R1 test groups>
R1_1

>  <formamide>
0

>  <prodrug phosphates>
0

>  <VolSurf_V>
2213.25

>  <VolSurf_S>
1395.07

>  <VolSurf_R>
1.58648

>  <VolSurf_G>
2.21379

>  <VolSurf_IW1>
0.0228943

>  <VolSurf_IW2>
0.0451961

>  <VolSurf_IW3>
0.0704665

>  <VolSurf_IW4>
0.103451

>  <VolSurf_ID1>
0.0446777

>  <VolSurf_ID2>
0.0736835

>  <VolSurf_ID3>
0.103571

>  <VolSurf_ID4>
0.130405

>  <VolSurf_HL1>
5.30104

>  <VolSurf_HL2>
2.54932

>  <VolSurf_A>
5.98549

>  <VolSurf_CP>
0.270706

>  <VolSurf_POL>
118.924

>  <VolSurf_MW>
1291.23

>  <VolSurf_FLEX>
8.69782

>  <VolSurf_FLEX_RB>
0.378166

>  <VolSurf_NCC>
6.0

>  <VolSurf_LOGP n-Oct>
-4.215

>  <VolSurf_LOGP c-Hex>
-9.0

>  <VolSurf_PSA>
515.07

>  <VolSurf_HSA>
879.998

>  <VolSurf_PSAR>
0.369208

>  <VolSurf_PHSAR>
0.585308

>  <VolSurf_LgD5>
-9.0

>  <VolSurf_LgD6>
-9.0

>  <VolSurf_LgD7>
-9.0

>  <VolSurf_LgD7.5>
-9.0

>  <VolSurf_LgD8>
-9.0

>  <VolSurf_LgD9>
-9.0

>  <VolSurf_LgD10>
-9.0

>  <VolSurf_AUS7.4>
0.0

>  <VolSurf_%FU4>
4.97425E-33

>  <VolSurf_%FU5>
4.97391E-39

>  <VolSurf_%FU6>
0.0

>  <VolSurf_%FU7>
0.0

>  <VolSurf_%FU8>
0.0

>  <VolSurf_%FU9>
0.0

>  <VolSurf_%FU10>
0.0

>  <ID>
411

>  <MOKAID>
412

>  <Clearance Route>
possible billary

>  <PC1>
-9.8884

>  <PC2>
-8.9109

$$$$
Susalimod
  -OEChem-08301611272D

 29 31  0     0  0  0  0  0  0999 V2000
    1.7350    2.0001    0.0000 N   0  0  0  0  0  0  0  0  0  0  0  0
    0.8675    1.5027    0.0000 C   0  0  0  0  0  0  0  0  0  0  0  0
    0.8675    0.4975    0.0000 C   0  0  0  0  0  0  0  0  0  0  0  0
    1.7328   -0.0038    0.0000 C   0  0  0  0  0  0  0  0  0  0  0  0
    0.0000    0.0000    0.0000 C   0  0  0  0  0  0  0  0  0  0  0  0
   -0.8675    0.4975    0.0000 C   0  0  0  0  0  0  0  0  0  0  0  0
   -0.8675    1.5027    0.0000 C   0  0  0  0  0  0  0  0  0  0  0  0
    0.0000    2.0104    0.0000 N   0  0  0  0  0  0  0  0  0  0  0  0
    1.7379    3.0001    0.0000 S   0  0  0  0  0  0  0  0  0  0  0  0
    1.7409    4.0001    0.0000 C   0  0  0  0  0  0  0  0  0  0  0  0
    0.8704    4.5027    0.0000 C   0  0  0  0  0  0  0  0  0  0  0  0
    0.8733    5.5028    0.0000 C   0  0  0  0  0  0  0  0  0  0  0  0
    1.7379    6.0053    0.0000 C   0  0  0  0  0  0  0  0  0  0  0  0
    1.7364    7.0053    0.0000 C   0  0  0  0  0  0  0  0  0  0  0  0
    1.7350    8.0053    0.0000 C   0  0  0  0  0  0  0  0  0  0  0  0
    1.7335    9.0053    0.0000 C   0  0  0  0  0  0  0  0  0  0  0  0
    2.6048    9.5066    0.0000 C   0  0  0  0  0  0  0  0  0  0  0  0
    2.6034   10.5066    0.0000 C   0  0  0  0  0  0  0  0  0  0  0  0
    1.7396   11.0104    0.0000 C   0  0  0  0  0  0  0  0  0  0  0  0
    0.8683   10.5091    0.0000 C   0  0  0  0  0  0  0  0  0  0  0  0
    0.8608    9.5040    0.0000 C   0  0  0  0  0  0  0  0  0  0  0  0
    0.0045   11.0130    0.0000 C   0  0  0  0  0  0  0  0  0  0  0  0
    0.0089   12.0130    0.0000 O   0  0  0  0  0  0  0  0  0  0  0  0
   -0.8638   10.5168    0.0000 O   0  0  0  0  0  0  0  0  0  0  0  0
    1.7425   12.0104    0.0000 O   0  0  0  0  0  0  0  0  0  0  0  0
    2.6084    5.5027    0.0000 C   0  0  0  0  0  0  0  0  0  0  0  0
    2.6143    4.4976    0.0000 C   0  0  0  0  0  0  0  0  0  0  0  0
    0.7380    3.0031    0.0000 O   0  0  0  0  0  0  0  0  0  0  0  0
    2.7379    2.9972    0.0000 O   0  0  0  0  0  0  0  0  0  0  0  0
  1  2  1  0  0  0  0
  2  8  2  0  0  0  0
  2  3  1  0  0  0  0
  3  4  1  0  0  0  0
  3  5  2  0  0  0  0
  5  6  1  0  0  0  0
  6  7  2  0  0  0  0
  7  8  1  0  0  0  0
  1  9  1  0  0  0  0
  9 10  1  0  0  0  0
 10 27  2  0  0  0  0
 10 11  1  0  0  0  0
 11 12  2  0  0  0  0
 12 13  1  0  0  0  0
 13 14  1  0  0  0  0
 14 15  3  0  0  0  0
 15 16  1  0  0  0  0
 16 21  2  0  0  0  0
 16 17  1  0  0  0  0
 17 18  2  0  0  0  0
 18 19  1  0  0  0  0
 19 20  2  0  0  0  0
 20 21  1  0  0  0  0
 20 22  1  0  0  0  0
 22 23  2  0  0  0  0
 22 24  1  0  0  0  0
 19 25  1  0  0  0  0
 13 26  2  0  0  0  0
 26 27  1  0  0  0  0
  9 28  2  0  0  0  0
  9 29  2  0  0  0  0
M  END
>  <Name>
Susalimod

>  <CAS #>
149556-49-0

>  <human Clearance (mL/min/kg)>
0.07

>  <Primary mechanism (metabolic, biliary or renal)>
bile

>  <seqId>
862.0

>  <Code (mechanism and clearance degree index)>
B1

>  < Five M1 and R1 test groups>
31

>  <formamide>
0

>  <prodrug phosphates>
0

>  <VolSurf_V>
854.125

>  <VolSurf_S>
592.176

>  <VolSurf_R>
1.44235

>  <VolSurf_G>
1.58646

>  <VolSurf_IW1>
0.0616385

>  <VolSurf_IW2>
0.163757

>  <VolSurf_IW3>
0.536548

>  <VolSurf_IW4>
1.58744

>  <VolSurf_ID1>
0.0216278

>  <VolSurf_ID2>
0.0254301

>  <VolSurf_ID3>
0.0603699

>  <VolSurf_ID4>
0.0854172

>  <VolSurf_HL1>
1.71224

>  <VolSurf_HL2>
1.02632

>  <VolSurf_A>
3.82046

>  <VolSurf_CP>
4.04432

>  <VolSurf_POL>
40.885

>  <VolSurf_MW>
407.419

>  <VolSurf_FLEX>
1.4989

>  <VolSurf_FLEX_RB>
0.187363

>  <VolSurf_NCC>
1.0

>  <VolSurf_LOGP n-Oct>
4.073

>  <VolSurf_LOGP c-Hex>
-1.451

>  <VolSurf_PSA>
133.173

>  <VolSurf_HSA>
459.004

>  <VolSurf_PSAR>
0.224887

>  <VolSurf_PHSAR>
0.290134

>  <VolSurf_LgD5>
2.0033

>  <VolSurf_LgD6>
1.14533

>  <VolSurf_LgD7>
0.638935

>  <VolSurf_LgD7.5>
0.411251

>  <VolSurf_LgD8>
0.0910584

>  <VolSurf_LgD9>
-0.670038

>  <VolSurf_LgD10>
-1.08879

>  <VolSurf_AUS7.4>
0.0

>  <VolSurf_%FU4>
7.58003

>  <VolSurf_%FU5>
0.812533

>  <VolSurf_%FU6>
0.0796784

>  <VolSurf_%FU7>
0.00629885

>  <VolSurf_%FU8>
2.03168E-4

>  <VolSurf_%FU9>
2.61274E-6

>  <VolSurf_%FU10>
2.68497E-8

>  <ID>
412

>  <MOKAID>
413

>  <Clearance Route>
possible billary

>  <PC1>
0.00325005

>  <PC2>
-1.08511

$$$$
Tacrolimus
  -OEChem-08301611272D

 59 62  0     1  0  0  0  0  0999 V2000
   -9.9303    5.0028    0.0000 C   0  0  0  0  0  0  0  0  0  0  0  0
   -9.4246    4.1401    0.0000 O   0  0  0  0  0  0  0  0  0  0  0  0
   -8.4246    4.1467    0.0000 C   0  0  2  0  0  0  0  0  0  0  0  0
   -7.9189    3.2781    0.0000 C   0  0  0  0  0  0  0  0  0  0  0  0
   -6.9138    3.2936    0.0000 C   0  0  1  0  0  0  0  0  0  0  0  0
   -6.4196    4.1689    0.0000 C   0  0  0  0  0  0  0  0  0  0  0  0
   -6.9304    5.0287    0.0000 C   0  0  0  0  0  0  0  0  0  0  0  0
   -7.9304    5.0220    0.0000 C   0  0  1  0  0  0  0  0  0  0  0  0
   -8.4374    5.8840    0.0000 O   0  0  0  0  0  0  0  0  0  0  0  0
   -6.4030    2.4339    0.0000 C   0  0  0  0  0  0  0  0  0  0  0  0
   -5.4031    2.4465    0.0000 C   0  0  0  0  0  0  0  0  0  0  0  0
   -4.9140    3.3187    0.0000 C   0  0  0  0  0  0  0  0  0  0  0  0
   -4.5092    0.9420    0.0000 C   0  0  1  0  0  0  0  0  0  0  0  0
   -5.2856    0.3090    0.0000 O   0  0  0  0  0  0  0  0  0  0  0  0
   -5.8410   -0.5306    0.0000 C   0  0  0  0  0  0  0  0  0  0  0  0
   -7.4213    0.2212    0.0000 O   0  0  0  0  0  0  0  0  0  0  0  0
   -6.1506   -1.5184    0.0000 C   0  0  2  0  0  0  0  0  0  0  0  0
   -7.0485   -1.0070    0.0000 C   0  0  0  0  0  0  0  0  0  0  0  0
   -7.9228   -1.5026    0.0000 C   0  0  0  0  0  0  0  0  0  0  0  0
   -7.9228   -2.5094    0.0000 C   0  0  0  0  0  0  0  0  0  0  0  0
   -7.0680   -3.0284    0.0000 C   0  0  0  0  0  0  0  0  0  0  0  0
   -6.1506   -2.5434    0.0000 N   0  0  0  0  0  0  0  0  0  0  0  0
   -5.7868   -3.5492    0.0000 C   0  0  0  0  0  0  0  0  0  0  0  0
   -6.6704   -4.0175    0.0000 O   0  0  0  0  0  0  0  0  0  0  0  0
   -5.1717   -4.3971    0.0000 C   0  0  0  0  0  0  0  0  0  0  0  0
   -5.8886   -5.0943    0.0000 O   0  0  0  0  0  0  0  0  0  0  0  0
   -4.3429   -5.0343    0.0000 C   0  0  2  0  0  0  0  0  0  0  0  0
   -4.1556   -4.0520    0.0000 O   0  0  0  0  0  0  0  0  0  0  0  0
   -3.3665   -4.7550    0.0000 O   0  0  0  0  0  0  0  0  0  0  0  0
   -2.6364   -5.4609    0.0000 C   0  0  2  0  0  0  0  0  0  0  0  0
   -1.5197   -5.1567    0.0000 C   0  0  2  0  0  0  0  0  0  0  0  0
   -0.6340   -4.6419    0.0000 C   0  0  0  0  0  0  0  0  0  0  0  0
    0.0610   -3.8839    0.0000 C   0  0  1  0  0  0  0  0  0  0  0  0
    0.8918   -4.4405    0.0000 C   0  0  0  0  0  0  0  0  0  0  0  0
    0.4990   -2.9497    0.0000 C   0  0  0  0  0  0  0  0  0  0  0  0
    0.6376   -1.9251    0.0000 C   0  0  0  0  0  0  0  0  0  0  0  0
    0.4640   -0.9100    0.0000 C   0  0  0  0  0  0  0  0  0  0  0  0
   -0.0000    0.0000    0.0000 C   0  0  1  0  0  0  0  0  0  0  0  0
    0.8130    0.5822    0.0000 C   0  0  0  0  0  0  0  0  0  0  0  0
    1.7238    0.1693    0.0000 C   0  0  0  0  0  0  0  0  0  0  0  0
    2.5368    0.7515    0.0000 C   0  0  0  0  0  0  0  0  0  0  0  0
   -0.7067    0.7267    0.0000 C   0  0  0  0  0  0  0  0  0  0  0  0
   -0.1013    1.5226    0.0000 O   0  0  0  0  0  0  0  0  0  0  0  0
   -1.5911    1.2112    0.0000 C   0  0  0  0  0  0  0  0  0  0  0  0
   -2.5773    1.4152    0.0000 C   0  0  2  0  0  0  0  0  0  0  0  0
   -2.5217    2.4137    0.0000 O   0  0  0  0  0  0  0  0  0  0  0  0
   -3.5801    1.3220    0.0000 C   0  0  1  0  0  0  0  0  0  0  0  0
   -3.8182    2.2932    0.0000 C   0  0  0  0  0  0  0  0  0  0  0  0
    1.6374   -1.9076    0.0000 C   0  0  0  0  0  0  0  0  0  0  0  0
   -1.1338   -6.0792    0.0000 O   0  0  0  0  0  0  0  0  0  0  0  0
   -0.1419   -6.2062    0.0000 C   0  0  0  0  0  0  0  0  0  0  0  0
   -2.8827   -6.4461    0.0000 C   0  0  2  0  0  0  0  0  0  0  0  0
   -3.8591   -6.7254    0.0000 C   0  0  0  0  0  0  0  0  0  0  0  0
   -4.5892   -6.0195    0.0000 C   0  0  1  0  0  0  0  0  0  0  0  0
   -5.5506   -6.2945    0.0000 C   0  0  0  0  0  0  0  0  0  0  0  0
   -2.1638   -7.1412    0.0000 O   0  0  0  0  0  0  0  0  0  0  0  0
   -2.4063   -8.1114    0.0000 C   0  0  0  0  0  0  0  0  0  0  0  0
   -6.5166   -0.5878    0.0000 H   0  0  0  0  0  0  0  0  0  0  0  0
   -2.3877   -4.4923    0.0000 H   0  0  0  0  0  0  0  0  0  0  0  0
  1  2  1  0  0  0  0
  3  2  1  1  0  0  0
  3  8  1  0  0  0  0
  3  4  1  0  0  0  0
  4  5  1  0  0  0  0
  5  6  1  0  0  0  0
  6  7  1  0  0  0  0
  7  8  1  0  0  0  0
  8  9  1  6  0  0  0
  5 10  1  1  0  0  0
 10 11  2  0  0  0  0
 11 12  1  0  0  0  0
 13 11  1  6  0  0  0
 13 47  1  0  0  0  0
 13 14  1  0  0  0  0
 14 15  1  0  0  0  0
 15 16  2  0  0  0  0
 15 17  1  0  0  0  0
 17 22  1  0  0  0  0
 17 18  1  0  0  0  0
 18 19  1  0  0  0  0
 19 20  1  0  0  0  0
 20 21  1  0  0  0  0
 21 22  1  0  0  0  0
 22 23  1  0  0  0  0
 23 24  2  0  0  0  0
 23 25  1  0  0  0  0
 25 26  2  0  0  0  0
 25 27  1  0  0  0  0
 27 54  1  0  0  0  0
 27 28  1  1  0  0  0
 27 29  1  0  0  0  0
 29 30  1  0  0  0  0
 30 31  1  0  0  0  0
 31 32  1  0  0  0  0
 32 33  1  0  0  0  0
 33 34  1  6  0  0  0
 33 35  1  0  0  0  0
 35 36  1  0  0  0  0
 36 37  2  0  0  0  0
 37 38  1  0  0  0  0
 38 39  1  6  0  0  0
 39 40  1  0  0  0  0
 40 41  2  0  0  0  0
 38 42  1  0  0  0  0
 42 43  2  0  0  0  0
 42 44  1  0  0  0  0
 44 45  1  0  0  0  0
 45 46  1  1  0  0  0
 45 47  1  0  0  0  0
 47 48  1  6  0  0  0
 36 49  1  0  0  0  0
 31 50  1  6  0  0  0
 50 51  1  0  0  0  0
 30 52  1  0  0  0  0
 52 53  1  0  0  0  0
 53 54  1  0  0  0  0
 54 55  1  1  0  0  0
 52 56  1  1  0  0  0
 56 57  1  0  0  0  0
 17 58  1  6  0  0  0
 30 59  1  1  0  0  0
M  END
>  <Name>
Tacrolimus

>  <CAS #>
104987-11-3

>  <human Clearance (mL/min/kg)>
0.7

>  <Primary mechanism (metabolic, biliary or renal)>
metabolic

>  <seqId>
864.0

>  <Code (mechanism and clearance degree index)>
M1

>  < Five M1 and R1 test groups>
M1_4

>  <formamide>
0

>  <prodrug phosphates>
0

>  <VolSurf_V>
1693.5

>  <VolSurf_S>
1052.98

>  <VolSurf_R>
1.6083

>  <VolSurf_G>
1.89722

>  <VolSurf_IW1>
0.035145

>  <VolSurf_IW2>
0.0938389

>  <VolSurf_IW3>
0.162202

>  <VolSurf_IW4>
0.267983

>  <VolSurf_ID1>
0.0193976

>  <VolSurf_ID2>
0.0540759

>  <VolSurf_ID3>
0.144936

>  <VolSurf_ID4>
0.138361

>  <VolSurf_HL1>
7.6722

>  <VolSurf_HL2>
11.7222

>  <VolSurf_A>
4.72714

>  <VolSurf_CP>
0.198988

>  <VolSurf_POL>
83.8861

>  <VolSurf_MW>
804.018

>  <VolSurf_FLEX>
1.00513

>  <VolSurf_FLEX_RB>
0.0558408

>  <VolSurf_NCC>
0.0

>  <VolSurf_LOGP n-Oct>
4.035

>  <VolSurf_LOGP c-Hex>
0.678

>  <VolSurf_PSA>
191.33

>  <VolSurf_HSA>
861.647

>  <VolSurf_PSAR>
0.181704

>  <VolSurf_PHSAR>
0.222051

>  <VolSurf_LgD5>
4.035

>  <VolSurf_LgD6>
4.035

>  <VolSurf_LgD7>
4.035

>  <VolSurf_LgD7.5>
4.03498

>  <VolSurf_LgD8>
4.03495

>  <VolSurf_LgD9>
4.03452

>  <VolSurf_LgD10>
4.03019

>  <VolSurf_AUS7.4>
2.0

>  <VolSurf_%FU4>
100.0

>  <VolSurf_%FU5>
100.0

>  <VolSurf_%FU6>
99.9999

>  <VolSurf_%FU7>
99.9989

>  <VolSurf_%FU8>
99.9889

>  <VolSurf_%FU9>
99.8888

>  <VolSurf_%FU10>
98.8974

>  <ID>
413

>  <MOKAID>
414

>  <Clearance Route>
possible billary

>  <PC1>
3.7435699999999996

>  <PC2>
-5.97377

$$$$
TAS-106
  -OEChem-08301611272D

 19 20  0     1  0  0  0  0  0999 V2000
    0.8675    2.5129    0.0000 C   0  0  1  0  0  0  0  0  0  0  0  0
    0.8675    1.5129    0.0000 N   0  0  0  0  0  0  0  0  0  0  0  0
    1.7350    1.0052    0.0000 C   0  0  0  0  0  0  0  0  0  0  0  0
    2.6025    1.5026    0.0000 O   0  0  0  0  0  0  0  0  0  0  0  0
    1.7350    0.0000    0.0000 N   0  0  0  0  0  0  0  0  0  0  0  0
    0.8675   -0.4975    0.0000 C   0  0  0  0  0  0  0  0  0  0  0  0
    0.0000    0.0000    0.0000 C   0  0  0  0  0  0  0  0  0  0  0  0
   -0.0000    1.0052    0.0000 C   0  0  0  0  0  0  0  0  0  0  0  0
    0.8675   -1.4975    0.0000 N   0  0  0  0  0  0  0  0  0  0  0  0
    0.0563    3.0984    0.0000 O   0  0  0  0  0  0  0  0  0  0  0  0
    0.3676    4.0536    0.0000 C   0  0  1  0  0  0  0  0  0  0  0  0
    1.3693    4.0508    0.0000 C   0  0  2  0  0  0  0  0  0  0  0  0
    1.6784    3.0982    0.0000 C   0  0  1  0  0  0  0  0  0  0  0  0
    2.6289    2.7875    0.0000 O   0  0  0  0  0  0  0  0  0  0  0  0
    1.2668    5.0455    0.0000 O   0  0  0  0  0  0  0  0  0  0  0  0
    2.3477    4.2575    0.0000 C   0  0  0  0  0  0  0  0  0  0  0  0
    3.3261    4.4642    0.0000 C   0  0  0  0  0  0  0  0  0  0  0  0
   -0.2186    4.8638    0.0000 C   0  0  0  0  0  0  0  0  0  0  0  0
   -1.2134    4.7611    0.0000 O   0  0  0  0  0  0  0  0  0  0  0  0
  1 13  1  0  0  0  0
  1  2  1  1  0  0  0
  2  8  1  0  0  0  0
  2  3  1  0  0  0  0
  3  4  2  0  0  0  0
  3  5  1  0  0  0  0
  5  6  2  0  0  0  0
  6  7  1  0  0  0  0
  7  8  2  0  0  0  0
  6  9  1  0  0  0  0
  1 10  1  0  0  0  0
 10 11  1  0  0  0  0
 11 12  1  0  0  0  0
 12 13  1  0  0  0  0
 13 14  1  1  0  0  0
 12 15  1  1  0  0  0
 12 16  1  0  0  0  0
 16 17  3  0  0  0  0
 11 18  1  6  0  0  0
 18 19  1  0  0  0  0
M  END
>  <Name>
TAS-106

>  <CAS #>
918633-87-1

>  <human Clearance (mL/min/kg)>
1.6

>  <Primary mechanism (metabolic, biliary or renal)>
renal

>  <seqId>
869.0

>  <Code (mechanism and clearance degree index)>
R1

>  < Five M1 and R1 test groups>
R1_4

>  <formamide>
0

>  <prodrug phosphates>
0

>  <VolSurf_V>
527.375

>  <VolSurf_S>
384.992

>  <VolSurf_R>
1.36983

>  <VolSurf_G>
1.34689

>  <VolSurf_IW1>
0.0532662

>  <VolSurf_IW2>
0.0895721

>  <VolSurf_IW3>
0.201469

>  <VolSurf_IW4>
0.517357

>  <VolSurf_ID1>
0.00880172

>  <VolSurf_ID2>
0.240753

>  <VolSurf_ID3>
0.383314

>  <VolSurf_ID4>
0.512664

>  <VolSurf_HL1>
12.2261

>  <VolSurf_HL2>
9.80519

>  <VolSurf_A>
3.44021

>  <VolSurf_CP>
0.103669

>  <VolSurf_POL>
24.346

>  <VolSurf_MW>
267.238

>  <VolSurf_FLEX>
0.513457

>  <VolSurf_FLEX_RB>
0.073351

>  <VolSurf_NCC>
0.0

>  <VolSurf_LOGP n-Oct>
-3.164

>  <VolSurf_LOGP c-Hex>
-6.954

>  <VolSurf_PSA>
131.95

>  <VolSurf_HSA>
253.042

>  <VolSurf_PSAR>
0.342734

>  <VolSurf_PHSAR>
0.521455

>  <VolSurf_LgD5>
-3.21447

>  <VolSurf_LgD6>
-3.16936

>  <VolSurf_LgD7>
-3.16492

>  <VolSurf_LgD7.5>
-3.16539

>  <VolSurf_LgD8>
-3.1679

>  <VolSurf_LgD9>
-3.20106

>  <VolSurf_LgD10>
-3.4452

>  <VolSurf_AUS7.4>
2.0

>  <VolSurf_%FU4>
44.7897

>  <VolSurf_%FU5>
89.0255

>  <VolSurf_%FU6>
98.7737

>  <VolSurf_%FU7>
99.7883

>  <VolSurf_%FU8>
99.1068

>  <VolSurf_%FU9>
91.8184

>  <VolSurf_%FU10>
52.3217

>  <ID>
414

>  <MOKAID>
415

>  <Clearance Route>
renal

>  <PC1>
-1.77558

>  <PC2>
2.9999599999999997

$$$$
Tazarotene
  -OEChem-08301611272D

 25 27  0     0  0  0  0  0  0999 V2000
    5.2118    3.9931    0.0000 C   0  0  0  0  0  0  0  0  0  0  0  0
    5.2060    2.9862    0.0000 C   0  0  0  0  0  0  0  0  0  0  0  0
    4.3358    2.4934    0.0000 C   0  0  0  0  0  0  0  0  0  0  0  0
    3.4700    2.9950    0.0000 C   0  0  0  0  0  0  0  0  0  0  0  0
    2.6025    2.4976    0.0000 C   0  0  0  0  0  0  0  0  0  0  0  0
    1.7350    2.0001    0.0000 C   0  0  0  0  0  0  0  0  0  0  0  0
    0.8675    1.5027    0.0000 C   0  0  0  0  0  0  0  0  0  0  0  0
    0.8675    0.4975    0.0000 C   0  0  0  0  0  0  0  0  0  0  0  0
    0.0000    0.0000    0.0000 C   0  0  0  0  0  0  0  0  0  0  0  0
   -0.8675    0.4975    0.0000 C   0  0  0  0  0  0  0  0  0  0  0  0
   -1.7328   -0.0038    0.0000 C   0  0  0  0  0  0  0  0  0  0  0  0
   -1.7313   -1.0038    0.0000 O   0  0  0  0  0  0  0  0  0  0  0  0
   -2.5966   -1.5050    0.0000 C   0  0  0  0  0  0  0  0  0  0  0  0
   -2.5952   -2.5050    0.0000 C   0  0  0  0  0  0  0  0  0  0  0  0
   -2.5995    0.4950    0.0000 O   0  0  0  0  0  0  0  0  0  0  0  0
   -0.8675    1.5027    0.0000 C   0  0  0  0  0  0  0  0  0  0  0  0
    0.0000    2.0104    0.0000 N   0  0  0  0  0  0  0  0  0  0  0  0
    3.4744    4.0007    0.0000 C   0  0  0  0  0  0  0  0  0  0  0  0
    4.3446    4.5050    0.0000 C   0  0  0  0  0  0  0  0  0  0  0  0
    6.0704    2.4804    0.0000 C   0  0  0  0  0  0  0  0  0  0  0  0
    6.9460    2.9761    0.0000 C   0  0  0  0  0  0  0  0  0  0  0  0
    6.9518    3.9831    0.0000 C   0  0  0  0  0  0  0  0  0  0  0  0
    6.0818    4.4945    0.0000 S   0  0  0  0  0  0  0  0  0  0  0  0
    6.7073    1.7095    0.0000 C   0  0  0  0  0  0  0  0  0  0  0  0
    5.4224    1.7187    0.0000 C   0  0  0  0  0  0  0  0  0  0  0  0
  1 19  2  0  0  0  0
  1 23  1  0  0  0  0
  1  2  1  0  0  0  0
  2  3  2  0  0  0  0
  3  4  1  0  0  0  0
  4  5  1  0  0  0  0
  5  6  3  0  0  0  0
  6  7  1  0  0  0  0
  7 17  2  0  0  0  0
  7  8  1  0  0  0  0
  8  9  2  0  0  0  0
  9 10  1  0  0  0  0
 10 11  1  0  0  0  0
 11 12  1  0  0  0  0
 12 13  1  0  0  0  0
 13 14  1  0  0  0  0
 11 15  2  0  0  0  0
 10 16  2  0  0  0  0
 16 17  1  0  0  0  0
  4 18  2  0  0  0  0
 18 19  1  0  0  0  0
  2 20  1  0  0  0  0
 20 21  1  0  0  0  0
 21 22  1  0  0  0  0
 22 23  1  0  0  0  0
 20 24  1  0  0  0  0
 20 25  1  0  0  0  0
M  END
>  <Name>
Tazarotene

>  <CAS #>
118292-40-3

>  <human Clearance (mL/min/kg)>
37.2

>  <Primary mechanism (metabolic, biliary or renal)>


>  <seqId>
871.0

>  <Code (mechanism and clearance degree index)>
M1

>  < Five M1 and R1 test groups>
M1_5

>  <formamide>
0

>  <prodrug phosphates>
0

>  <VolSurf_V>
820.375

>  <VolSurf_S>
571.12

>  <VolSurf_R>
1.43643

>  <VolSurf_G>
1.56442

>  <VolSurf_IW1>
0.0755659

>  <VolSurf_IW2>
0.269042

>  <VolSurf_IW3>
0.954559

>  <VolSurf_IW4>
1.22719

>  <VolSurf_ID1>
0.0338304

>  <VolSurf_ID2>
0.0530404

>  <VolSurf_ID3>
0.0566437

>  <VolSurf_ID4>
0.0752724

>  <VolSurf_HL1>
0.775717

>  <VolSurf_HL2>
0.555819

>  <VolSurf_A>
6.5455

>  <VolSurf_CP>
3.57081

>  <VolSurf_POL>
39.28

>  <VolSurf_MW>
351.462

>  <VolSurf_FLEX>
0.424432

>  <VolSurf_FLEX_RB>
0.053054

>  <VolSurf_NCC>
0.0

>  <VolSurf_LOGP n-Oct>
5.311

>  <VolSurf_LOGP c-Hex>
4.785

>  <VolSurf_PSA>
50.7

>  <VolSurf_HSA>
520.42

>  <VolSurf_PSAR>
0.0887729

>  <VolSurf_PHSAR>
0.0974213

>  <VolSurf_LgD5>
5.31039

>  <VolSurf_LgD6>
5.31094

>  <VolSurf_LgD7>
5.31099

>  <VolSurf_LgD7.5>
5.311

>  <VolSurf_LgD8>
5.311

>  <VolSurf_LgD9>
5.311

>  <VolSurf_LgD10>
5.311

>  <VolSurf_AUS7.4>
2.0

>  <VolSurf_%FU4>
98.6244

>  <VolSurf_%FU5>
99.8607

>  <VolSurf_%FU6>
99.9861

>  <VolSurf_%FU7>
99.9986

>  <VolSurf_%FU8>
99.9999

>  <VolSurf_%FU9>
100.0

>  <VolSurf_%FU10>
100.0

>  <ID>
415

>  <MOKAID>
416

>  <Clearance Route>
metabolic

>  <PC1>
6.65211

>  <PC2>
-0.37285300000000005

$$$$
Tazobactam
  -OEChem-08301611272D

 21 23  0     1  0  0  0  0  0999 V2000
    1.9514    0.3089    0.0000 S   0  0  0  0  0  0  0  0  0  0  0  0
    2.5392   -0.5002    0.0000 C   0  0  1  0  0  0  0  0  0  0  0  0
    1.9511   -1.3093    0.0000 C   0  0  1  0  0  0  0  0  0  0  0  0
    1.0000   -1.0001    0.0000 N   0  0  0  0  0  0  0  0  0  0  0  0
    0.0000   -1.0001    0.0000 C   0  0  0  0  0  0  0  0  0  0  0  0
   -0.7071   -1.7072    0.0000 O   0  0  0  0  0  0  0  0  0  0  0  0
   -0.0000   -0.0000    0.0000 C   0  0  0  0  0  0  0  0  0  0  0  0
    1.0001   -0.0000    0.0000 C   0  0  1  0  0  0  0  0  0  0  0  0
    2.2599   -2.2604    0.0000 C   0  0  0  0  0  0  0  0  0  0  0  0
    3.2381   -2.4685    0.0000 O   0  0  0  0  0  0  0  0  0  0  0  0
    1.5907   -3.0034    0.0000 O   0  0  0  0  0  0  0  0  0  0  0  0
    3.8398    0.6707    0.0000 C   0  0  0  0  0  0  0  0  0  0  0  0
    4.7908    0.3616    0.0000 N   0  0  0  0  0  0  0  0  0  0  0  0
    5.6014    0.9479    0.0000 C   0  0  0  0  0  0  0  0  0  0  0  0
    6.4127    0.3635    0.0000 C   0  0  0  0  0  0  0  0  0  0  0  0
    6.1046   -0.5894    0.0000 N   0  0  0  0  0  0  0  0  0  0  0  0
    5.1030   -0.5933    0.0000 N   0  0  0  0  0  0  0  0  0  0  0  0
    3.2822   -1.1694    0.0000 C   0  0  0  0  0  0  0  0  0  0  0  0
    1.2398    1.9077    0.0000 O   0  0  0  0  0  0  0  0  0  0  0  0
    2.8175    0.8088    0.0000 O   0  0  0  0  0  0  0  0  0  0  0  0
    0.8438    0.9877    0.0000 H   0  0  0  0  0  0  0  0  0  0  0  0
  1  8  1  0  0  0  0
  1  2  1  0  0  0  0
  2  3  1  0  0  0  0
  3  4  1  0  0  0  0
  4  8  1  0  0  0  0
  4  5  1  0  0  0  0
  5  6  2  0  0  0  0
  5  7  1  0  0  0  0
  7  8  1  0  0  0  0
  3  9  1  6  0  0  0
  9 10  1  0  0  0  0
  9 11  2  0  0  0  0
  2 12  1  0  0  0  0
 12 13  1  0  0  0  0
 13 17  1  0  0  0  0
 13 14  1  0  0  0  0
 14 15  2  0  0  0  0
 15 16  1  0  0  0  0
 16 17  2  0  0  0  0
  2 18  1  1  0  0  0
  1 19  2  0  0  0  0
  1 20  2  0  0  0  0
  8 21  1  6  0  0  0
M  END
>  <Name>
Tazobactam

>  <CAS #>
89786-04-9

>  <human Clearance (mL/min/kg)>
4.81

>  <Primary mechanism (metabolic, biliary or renal)>
renal

>  <seqId>
872.0

>  <Code (mechanism and clearance degree index)>
R1

>  < Five M1 and R1 test groups>
R1_3

>  <formamide>
0

>  <prodrug phosphates>
0

>  <VolSurf_V>
559.75

>  <VolSurf_S>
375.967

>  <VolSurf_R>
1.48883

>  <VolSurf_G>
1.22463

>  <VolSurf_IW1>
0.088684

>  <VolSurf_IW2>
0.179409

>  <VolSurf_IW3>
0.489709

>  <VolSurf_IW4>
0.956225

>  <VolSurf_ID1>
0.0784545

>  <VolSurf_ID2>
0.17767

>  <VolSurf_ID3>
0.406007

>  <VolSurf_ID4>
0.515225

>  <VolSurf_HL1>
11.4198

>  <VolSurf_HL2>
9.62025

>  <VolSurf_A>
4.16034

>  <VolSurf_CP>
0.145136

>  <VolSurf_POL>
25.809

>  <VolSurf_MW>
299.283

>  <VolSurf_FLEX>
1.01811

>  <VolSurf_FLEX_RB>
0.254528

>  <VolSurf_NCC>
1.0

>  <VolSurf_LOGP n-Oct>
-1.662

>  <VolSurf_LOGP c-Hex>
-5.297

>  <VolSurf_PSA>
136.632

>  <VolSurf_HSA>
239.335

>  <VolSurf_PSAR>
0.363416

>  <VolSurf_PHSAR>
0.570885

>  <VolSurf_LgD5>
-4.30164

>  <VolSurf_LgD6>
-4.95084

>  <VolSurf_LgD7>
-5.13562

>  <VolSurf_LgD7.5>
-5.15348

>  <VolSurf_LgD8>
-5.15929

>  <VolSurf_LgD9>
-5.16173

>  <VolSurf_LgD10>
-5.16197

>  <VolSurf_AUS7.4>
0.0

>  <VolSurf_%FU4>
1.94255

>  <VolSurf_%FU5>
0.197714

>  <VolSurf_%FU6>
0.0198067

>  <VolSurf_%FU7>
0.00198102

>  <VolSurf_%FU8>
1.98106E-4

>  <VolSurf_%FU9>
1.98106E-5

>  <VolSurf_%FU10>
1.98106E-6

>  <ID>
416

>  <MOKAID>
417

>  <Clearance Route>
renal

>  <PC1>
-4.39502

>  <PC2>
2.26421

$$$$
Teicoplanin A2-1
  -OEChem-08301611272D

137150  0     1  0  0  0  0  0999 V2000
    2.5595   16.5837    0.0000 C   0  0  0  0  0  0  0  0  0  0  0  0
    3.4284   16.0887    0.0000 C   0  0  0  0  0  0  0  0  0  0  0  0
    4.2915   16.5937    0.0000 C   0  0  0  0  0  0  0  0  0  0  0  0
    5.1604   16.0987    0.0000 C   0  0  0  0  0  0  0  0  0  0  0  0
    5.1662   15.0988    0.0000 C   0  0  0  0  0  0  0  0  0  0  0  0
    4.3031   14.5938    0.0000 C   0  0  0  0  0  0  0  0  0  0  0  0
    4.3089   13.5938    0.0000 C   0  0  0  0  0  0  0  0  0  0  0  0
    5.1778   13.0988    0.0000 C   0  0  0  0  0  0  0  0  0  0  0  0
    5.1836   12.0988    0.0000 C   0  0  0  0  0  0  0  0  0  0  0  0
    6.0525   11.6038    0.0000 C   0  0  0  0  0  0  0  0  0  0  0  0
    6.9156   12.1088    0.0000 O   0  0  0  0  0  0  0  0  0  0  0  0
    6.0582   10.6039    0.0000 N   0  0  0  0  0  0  0  0  0  0  0  0
    5.1951   10.0989    0.0000 C   0  0  2  0  0  0  0  0  0  0  0  0
    4.3255   10.5926    0.0000 C   0  0  1  0  0  0  0  0  0  0  0  0
    4.3211   11.5926    0.0000 O   0  0  0  0  0  0  0  0  0  0  0  0
    3.4601   10.0913    0.0000 C   0  0  2  0  0  0  0  0  0  0  0  0
    2.5927   10.5888    0.0000 O   0  0  0  0  0  0  0  0  0  0  0  0
    3.4645    9.0861    0.0000 C   0  0  1  0  0  0  0  0  0  0  0  0
    2.5992    8.5850    0.0000 C   0  0  0  0  0  0  0  0  0  0  0  0
    1.7324    9.0838    0.0000 O   0  0  0  0  0  0  0  0  0  0  0  0
    4.3342    8.5822    0.0000 O   0  0  0  0  0  0  0  0  0  0  0  0
    5.1995    9.0937    0.0000 C   0  0  1  0  0  0  0  0  0  0  0  0
    6.0691    8.6000    0.0000 O   0  0  0  0  0  0  0  0  0  0  0  0
    6.0764    7.6000    0.0000 C   0  0  0  0  0  0  0  0  0  0  0  0
    6.9600    7.0944    0.0000 C   0  0  0  0  0  0  0  0  0  0  0  0
    7.8368    7.6129    0.0000 O   0  0  0  0  0  0  0  0  0  0  0  0
    8.7252    7.1043    0.0000 C   0  0  0  0  0  0  0  0  0  0  0  0
    8.7261    6.0780    0.0000 C   0  0  0  0  0  0  0  0  0  0  0  0
    9.6106    5.5686    0.0000 C   0  0  0  0  0  0  0  0  0  0  0  0
   10.4996    6.0798    0.0000 C   0  0  0  0  0  0  0  0  0  0  0  0
   11.3963    5.5653    0.0000 C   0  0  0  0  0  0  0  0  0  0  0  0
   11.3882    4.5322    0.0000 C   0  0  1  0  0  0  0  0  0  0  0  0
   12.2738    4.0116    0.0000 N   0  0  0  0  0  0  0  0  0  0  0  0
   13.1693    4.5172    0.0000 C   0  0  0  0  0  0  0  0  0  0  0  0
   13.1799    5.5172    0.0000 O   0  0  0  0  0  0  0  0  0  0  0  0
   14.0538    3.9928    0.0000 C   0  0  2  0  0  0  0  0  0  0  0  0
   14.9248    4.4841    0.0000 N   0  0  0  0  0  0  0  0  0  0  0  0
   14.0451    2.9817    0.0000 C   0  0  0  0  0  0  0  0  0  0  0  0
   14.5503    2.1061    0.0000 C   0  0  0  0  0  0  0  0  0  0  0  0
   14.0363    1.2303    0.0000 C   0  0  0  0  0  0  0  0  0  0  0  0
   13.0227    1.2354    0.0000 C   0  0  0  0  0  0  0  0  0  0  0  0
   12.5171    0.3726    0.0000 O   0  0  0  0  0  0  0  0  0  0  0  0
   12.5232    2.1165    0.0000 C   0  0  0  0  0  0  0  0  0  0  0  0
   11.5215    1.7429    0.0000 O   0  0  0  0  0  0  0  0  0  0  0  0
   10.2316    2.1473    0.0000 C   0  0  0  0  0  0  0  0  0  0  0  0
    9.7222    1.2679    0.0000 C   0  0  0  0  0  0  0  0  0  0  0  0
    8.7089    1.2763    0.0000 C   0  0  0  0  0  0  0  0  0  0  0  0
    8.2028    0.4138    0.0000 O   0  0  0  0  0  0  0  0  0  0  0  0
    8.2097    2.1525    0.0000 C   0  0  0  0  0  0  0  0  0  0  0  0
    8.7215    3.0278    0.0000 C   0  0  0  0  0  0  0  0  0  0  0  0
    9.7328    3.0269    0.0000 C   0  0  0  0  0  0  0  0  0  0  0  0
    8.7298    4.0377    0.0000 C   0  0  2  0  0  0  0  0  0  0  0  0
    9.6117    4.5478    0.0000 N   0  0  0  0  0  0  0  0  0  0  0  0
   10.4946    4.0304    0.0000 C   0  0  0  0  0  0  0  0  0  0  0  0
   10.4854    3.0304    0.0000 O   0  0  0  0  0  0  0  0  0  0  0  0
    7.8446    4.5515    0.0000 C   0  0  0  0  0  0  0  0  0  0  0  0
    7.8405    5.5515    0.0000 O   0  0  0  0  0  0  0  0  0  0  0  0
    6.9749    4.0371    0.0000 N   0  0  0  0  0  0  0  0  0  0  0  0
    6.0903    4.5493    0.0000 C   0  0  1  0  0  0  0  0  0  0  0  0
    5.2276    4.0385    0.0000 C   0  0  0  0  0  0  0  0  0  0  0  0
    5.2386    3.0386    0.0000 O   0  0  0  0  0  0  0  0  0  0  0  0
    4.3423    4.5366    0.0000 N   0  0  0  0  0  0  0  0  0  0  0  0
    3.4557    4.0672    0.0000 C   0  0  1  0  0  0  0  0  0  0  0  0
    2.5862    4.5611    0.0000 C   0  0  0  0  0  0  0  0  0  0  0  0
    2.5794    6.3111    0.0000 O   0  0  0  0  0  0  0  0  0  0  0  0
    1.7115    4.0552    0.0000 N   0  0  0  0  0  0  0  0  0  0  0  0
    0.8323    4.5570    0.0000 C   0  0  1  0  0  0  0  0  0  0  0  0
    0.8366    5.5644    0.0000 C   0  0  2  0  0  0  0  0  0  0  0  0
   -0.6783    6.4405    0.0000 O   0  0  0  0  0  0  0  0  0  0  0  0
   -2.1945    5.5665    0.0000 C   0  0  2  0  0  0  0  0  0  0  0  0
   -2.1922    4.5614    0.0000 O   0  0  0  0  0  0  0  0  0  0  0  0
   -3.0675    4.0671    0.0000 C   0  0  2  0  0  0  0  0  0  0  0  0
   -3.0741    3.0671    0.0000 C   0  0  0  0  0  0  0  0  0  0  0  0
   -3.9434    2.5729    0.0000 O   0  0  0  0  0  0  0  0  0  0  0  0
   -3.9362    4.5729    0.0000 C   0  0  1  0  0  0  0  0  0  0  0  0
   -4.8047    4.0773    0.0000 O   0  0  0  0  0  0  0  0  0  0  0  0
   -3.9296    5.5729    0.0000 C   0  0  2  0  0  0  0  0  0  0  0  0
   -4.7938    6.0761    0.0000 O   0  0  0  0  0  0  0  0  0  0  0  0
   -3.0632    6.0723    0.0000 C   0  0  1  0  0  0  0  0  0  0  0  0
   -3.0593    7.8223    0.0000 N   0  0  0  0  0  0  0  0  0  0  0  0
   -2.1922    8.3204    0.0000 C   0  0  0  0  0  0  0  0  0  0  0  0
   -1.3273    7.8185    0.0000 O   0  0  0  0  0  0  0  0  0  0  0  0
   -2.1900    9.3204    0.0000 C   0  0  0  0  0  0  0  0  0  0  0  0
    1.7036    6.0683    0.0000 C   0  0  0  0  0  0  0  0  0  0  0  0
    1.7036    7.0819    0.0000 C   0  0  0  0  0  0  0  0  0  0  0  0
    2.5784    7.5937    0.0000 C   0  0  0  0  0  0  0  0  0  0  0  0
    3.4531    7.0819    0.0000 C   0  0  0  0  0  0  0  0  0  0  0  0
    4.3254    7.5925    0.0000 O   0  0  0  0  0  0  0  0  0  0  0  0
    5.2045    7.0841    0.0000 C   0  0  0  0  0  0  0  0  0  0  0  0
    5.2033    6.0662    0.0000 C   0  0  0  0  0  0  0  0  0  0  0  0
    6.0850    5.5628    0.0000 C   0  0  0  0  0  0  0  0  0  0  0  0
    6.9614    6.0755    0.0000 C   0  0  0  0  0  0  0  0  0  0  0  0
    3.4415    6.0783    0.0000 C   0  0  0  0  0  0  0  0  0  0  0  0
    4.3076    5.5784    0.0000 Cl  0  0  0  0  0  0  0  0  0  0  0  0
    2.5790    5.5666    0.0000 C   0  0  0  0  0  0  0  0  0  0  0  0
   -0.0371    4.0495    0.0000 C   0  0  0  0  0  0  0  0  0  0  0  0
   -0.9048    4.5465    0.0000 O   0  0  0  0  0  0  0  0  0  0  0  0
   -0.0350    3.0380    0.0000 N   0  0  0  0  0  0  0  0  0  0  0  0
    0.8471    2.5318    0.0000 C   0  0  1  0  0  0  0  0  0  0  0  0
   -0.6630    1.6475    0.0000 C   0  0  0  0  0  0  0  0  0  0  0  0
   -1.5321    2.1422    0.0000 O   0  0  0  0  0  0  0  0  0  0  0  0
   -0.6569    0.6475    0.0000 O   0  0  0  0  0  0  0  0  0  0  0  0
    0.8569    1.5172    0.0000 C   0  0  0  0  0  0  0  0  0  0  0  0
   -0.0067    1.0076    0.0000 C   0  0  0  0  0  0  0  0  0  0  0  0
    0.0000   -0.0000    0.0000 C   0  0  0  0  0  0  0  0  0  0  0  0
   -0.8620   -0.5069    0.0000 O   0  0  0  0  0  0  0  0  0  0  0  0
    0.8780   -0.4960    0.0000 C   0  0  0  0  0  0  0  0  0  0  0  0
    1.7493    0.0157    0.0000 C   0  0  0  0  0  0  0  0  0  0  0  0
    2.6207   -0.4749    0.0000 O   0  0  0  0  0  0  0  0  0  0  0  0
    2.6316   -1.4748    0.0000 C   0  0  1  0  0  0  0  0  0  0  0  0
    3.5089   -1.9653    0.0000 O   0  0  0  0  0  0  0  0  0  0  0  0
    3.5110   -2.9704    0.0000 C   0  0  2  0  0  0  0  0  0  0  0  0
    4.3795   -3.4661    0.0000 C   0  0  0  0  0  0  0  0  0  0  0  0
    4.3844   -4.4661    0.0000 O   0  0  0  0  0  0  0  0  0  0  0  0
    2.6444   -3.4799    0.0000 C   0  0  1  0  0  0  0  0  0  0  0  0
    2.6509   -4.4799    0.0000 O   0  0  0  0  0  0  0  0  0  0  0  0
    1.7759   -2.9842    0.0000 C   0  0  2  0  0  0  0  0  0  0  0  0
    0.9138   -3.4911    0.0000 O   0  0  0  0  0  0  0  0  0  0  0  0
    1.7651   -1.9843    0.0000 C   0  0  2  0  0  0  0  0  0  0  0  0
    0.8944   -1.4924    0.0000 O   0  0  0  0  0  0  0  0  0  0  0  0
    1.7349    1.0212    0.0000 C   0  0  0  0  0  0  0  0  0  0  0  0
    2.6098    1.5384    0.0000 C   0  0  0  0  0  0  0  0  0  0  0  0
    2.6032    2.5511    0.0000 C   0  0  0  0  0  0  0  0  0  0  0  0
    3.4722    3.0657    0.0000 C   0  0  0  0  0  0  0  0  0  0  0  0
    4.3497    2.5668    0.0000 C   0  0  0  0  0  0  0  0  0  0  0  0
    4.3595    1.5496    0.0000 C   0  0  0  0  0  0  0  0  0  0  0  0
    3.4851    1.0405    0.0000 C   0  0  0  0  0  0  0  0  0  0  0  0
    3.4901    0.0405    0.0000 O   0  0  0  0  0  0  0  0  0  0  0  0
   13.0316    2.9867    0.0000 C   0  0  0  0  0  0  0  0  0  0  0  0
   10.4986    7.1061    0.0000 C   0  0  0  0  0  0  0  0  0  0  0  0
    9.6086    7.6212    0.0000 C   0  0  0  0  0  0  0  0  0  0  0  0
    9.6062    8.6212    0.0000 Cl  0  0  0  0  0  0  0  0  0  0  0  0
   11.3783    3.5323    0.0000 H   0  0  0  0  0  0  0  0  0  0  0  0
    9.5940    3.5345    0.0000 H   0  0  0  0  0  0  0  0  0  0  0  0
    6.9553    5.0510    0.0000 H   0  0  0  0  0  0  0  0  0  0  0  0
    3.4705    5.0671    0.0000 H   0  0  0  0  0  0  0  0  0  0  0  0
   -0.0338    5.0568    0.0000 H   0  0  0  0  0  0  0  0  0  0  0  0
  1  2  1  0  0  0  0
  2  3  1  0  0  0  0
  3  4  1  0  0  0  0
  4  5  1  0  0  0  0
  5  6  1  0  0  0  0
  6  7  2  0  0  0  0
  7  8  1  0  0  0  0
  8  9  1  0  0  0  0
  9 10  1  0  0  0  0
 10 11  2  0  0  0  0
 10 12  1  0  0  0  0
 13 12  1  1  0  0  0
 13 22  1  0  0  0  0
 13 14  1  0  0  0  0
 14 15  1  6  0  0  0
 14 16  1  0  0  0  0
 16 17  1  1  0  0  0
 16 18  1  0  0  0  0
 18 19  1  6  0  0  0
 19 20  1  0  0  0  0
 18 21  1  0  0  0  0
 21 22  1  0  0  0  0
 22 23  1  6  0  0  0
 23 24  1  0  0  0  0
 24 89  2  0  0  0  0
 24 25  1  0  0  0  0
 25 92  2  0  0  0  0
 25 26  1  0  0  0  0
 26 27  1  0  0  0  0
 27131  2  0  0  0  0
 27 28  1  0  0  0  0
 28 29  2  0  0  0  0
 29 30  1  0  0  0  0
 30 31  1  0  0  0  0
 31 32  1  0  0  0  0
 32 54  1  0  0  0  0
 32 33  1  0  0  0  0
 33 34  1  0  0  0  0
 34 35  2  0  0  0  0
 34 36  1  0  0  0  0
 36 37  1  6  0  0  0
 36 38  1  0  0  0  0
 38129  2  0  0  0  0
 38 39  1  0  0  0  0
 39 40  2  0  0  0  0
 40 41  1  0  0  0  0
 41 42  1  0  0  0  0
 41 43  2  0  0  0  0
 43 44  1  0  0  0  0
 44 45  1  0  0  0  0
 45 51  2  0  0  0  0
 45 46  1  0  0  0  0
 46 47  2  0  0  0  0
 47 48  1  0  0  0  0
 47 49  1  0  0  0  0
 49 50  2  0  0  0  0
 50 51  1  0  0  0  0
 50 52  1  0  0  0  0
 52 53  1  0  0  0  0
 53 54  1  0  0  0  0
 54 55  2  0  0  0  0
 52 56  1  0  0  0  0
 56 57  2  0  0  0  0
 56 58  1  0  0  0  0
 58 59  1  0  0  0  0
 59 91  1  0  0  0  0
 59 60  1  0  0  0  0
 60 61  2  0  0  0  0
 60 62  1  0  0  0  0
 62 63  1  0  0  0  0
 63124  1  0  0  0  0
 63 64  1  0  0  0  0
 64 65  2  0  0  0  0
 64 66  1  0  0  0  0
 66 67  1  0  0  0  0
 67 68  1  0  0  0  0
 68 69  1  6  0  0  0
 70 69  1  6  0  0  0
 70 79  1  0  0  0  0
 70 71  1  0  0  0  0
 71 72  1  0  0  0  0
 72 73  1  6  0  0  0
 73 74  1  0  0  0  0
 72 75  1  0  0  0  0
 75 76  1  1  0  0  0
 75 77  1  0  0  0  0
 77 78  1  6  0  0  0
 77 79  1  0  0  0  0
 79 80  1  1  0  0  0
 80 81  1  0  0  0  0
 81 82  2  0  0  0  0
 81 83  1  0  0  0  0
 68 84  1  0  0  0  0
 84 95  2  0  0  0  0
 84 85  1  0  0  0  0
 85 86  2  0  0  0  0
 86 87  1  0  0  0  0
 87 88  1  0  0  0  0
 88 89  1  0  0  0  0
 89 90  1  0  0  0  0
 90 91  2  0  0  0  0
 91 92  1  0  0  0  0
 87 93  2  0  0  0  0
 93 94  1  0  0  0  0
 93 95  1  0  0  0  0
 67 96  1  0  0  0  0
 96 97  2  0  0  0  0
 96 98  1  0  0  0  0
 98 99  1  0  0  0  0
 99100  1  1  0  0  0
100101  2  0  0  0  0
100102  1  0  0  0  0
 99103  1  0  0  0  0
103121  2  0  0  0  0
103104  1  0  0  0  0
104105  2  0  0  0  0
105106  1  0  0  0  0
105107  1  0  0  0  0
107108  2  0  0  0  0
108109  1  0  0  0  0
110109  1  1  0  0  0
110119  1  0  0  0  0
110111  1  0  0  0  0
111112  1  0  0  0  0
112113  1  6  0  0  0
113114  1  0  0  0  0
112115  1  0  0  0  0
115116  1  1  0  0  0
115117  1  0  0  0  0
117118  1  6  0  0  0
117119  1  0  0  0  0
119120  1  6  0  0  0
108121  1  0  0  0  0
121122  1  0  0  0  0
122127  2  0  0  0  0
122123  1  0  0  0  0
123124  2  0  0  0  0
124125  1  0  0  0  0
125126  2  0  0  0  0
126127  1  0  0  0  0
127128  1  0  0  0  0
 43129  1  0  0  0  0
 30130  2  0  0  0  0
130131  1  0  0  0  0
131132  1  0  0  0  0
 32133  1  6  0  0  0
 52134  1  6  0  0  0
 59135  1  6  0  0  0
 63136  1  1  0  0  0
 67137  1  1  0  0  0
M  END
>  <Name>
Teicoplanin A2-1

>  <CAS #>
61036-64-4

>  <human Clearance (mL/min/kg)>
0.2

>  <Primary mechanism (metabolic, biliary or renal)>
renal

>  <seqId>
875.0

>  <Code (mechanism and clearance degree index)>
R1

>  < Five M1 and R1 test groups>
R1_4

>  <formamide>
0

>  <prodrug phosphates>
0

>  <VolSurf_V>
3171.12

>  <VolSurf_S>
1817.69

>  <VolSurf_R>
1.74459

>  <VolSurf_G>
2.29795

>  <VolSurf_IW1>
0.0286839

>  <VolSurf_IW2>
0.0538944

>  <VolSurf_IW3>
0.0992864

>  <VolSurf_IW4>
0.137943

>  <VolSurf_ID1>
0.0340013

>  <VolSurf_ID2>
0.0544414

>  <VolSurf_ID3>
0.0584089

>  <VolSurf_ID4>
0.0705599

>  <VolSurf_HL1>
14.4908

>  <VolSurf_HL2>
15.8456

>  <VolSurf_A>
7.70009

>  <VolSurf_CP>
0.097982

>  <VolSurf_POL>
177.343

>  <VolSurf_MW>
1876.63

>  <VolSurf_FLEX>
2.55094

>  <VolSurf_FLEX_RB>
0.0689444

>  <VolSurf_NCC>
1.0

>  <VolSurf_LOGP n-Oct>
0.473

>  <VolSurf_LOGP c-Hex>
-9.0

>  <VolSurf_PSA>
692.13

>  <VolSurf_HSA>
1125.56

>  <VolSurf_PSAR>
0.380774

>  <VolSurf_PHSAR>
0.614919

>  <VolSurf_LgD5>
-1.83062

>  <VolSurf_LgD6>
-1.85636

>  <VolSurf_LgD7>
-2.0513

>  <VolSurf_LgD7.5>
-2.30316

>  <VolSurf_LgD8>
-2.62657

>  <VolSurf_LgD9>
-3.44855

>  <VolSurf_LgD10>
-5.75543

>  <VolSurf_AUS7.4>
0.0

>  <VolSurf_%FU4>
0.0

>  <VolSurf_%FU5>
0.0

>  <VolSurf_%FU6>
0.0

>  <VolSurf_%FU7>
0.0

>  <VolSurf_%FU8>
0.0

>  <VolSurf_%FU9>
0.0

>  <VolSurf_%FU10>
0.0

>  <ID>
417

>  <MOKAID>
418

>  <Clearance Route>
possible billary

>  <PC1>
-6.4914

>  <PC2>
-13.3629

$$$$
Telavancin
  -OEChem-08301611272D

124133  0     1  0  0  0  0  0999 V2000
    8.9085    7.5350    0.0000 C   0  0  0  0  0  0  0  0  0  0  0  0
    7.9267    7.3455    0.0000 C   0  0  0  0  0  0  0  0  0  0  0  0
    7.2716    8.1011    0.0000 C   0  0  0  0  0  0  0  0  0  0  0  0
    6.2897    7.9116    0.0000 C   0  0  0  0  0  0  0  0  0  0  0  0
    5.6347    8.6672    0.0000 C   0  0  0  0  0  0  0  0  0  0  0  0
    4.6528    8.4777    0.0000 C   0  0  0  0  0  0  0  0  0  0  0  0
    3.9977    9.2333    0.0000 C   0  0  0  0  0  0  0  0  0  0  0  0
    3.0158    9.0437    0.0000 C   0  0  0  0  0  0  0  0  0  0  0  0
    2.3608    9.7993    0.0000 C   0  0  0  0  0  0  0  0  0  0  0  0
    1.3789    9.6098    0.0000 C   0  0  0  0  0  0  0  0  0  0  0  0
    0.7239   10.3654    0.0000 N   0  0  0  0  0  0  0  0  0  0  0  0
   -0.2580   10.1759    0.0000 C   0  0  0  0  0  0  0  0  0  0  0  0
   -0.9131   10.9315    0.0000 C   0  0  0  0  0  0  0  0  0  0  0  0
   -1.8950   10.7420    0.0000 N   0  0  0  0  0  0  0  0  0  0  0  0
   -2.2218    9.7969    0.0000 C   0  0  1  0  0  0  0  0  0  0  0  0
   -1.2340    9.6411    0.0000 C   0  0  0  0  0  0  0  0  0  0  0  0
   -2.2018    8.7971    0.0000 C   0  0  0  0  0  0  0  0  0  0  0  0
   -3.0636    8.2797    0.0000 C   0  0  2  0  0  0  0  0  0  0  0  0
   -3.0436    7.2799    0.0000 O   0  0  0  0  0  0  0  0  0  0  0  0
   -2.1677    6.7973    0.0000 C   0  0  2  0  0  0  0  0  0  0  0  0
   -1.3111    7.3133    0.0000 C   0  0  1  0  0  0  0  0  0  0  0  0
   -1.3326    8.3131    0.0000 O   0  0  0  0  0  0  0  0  0  0  0  0
   -0.4331    6.8346    0.0000 C   0  0  2  0  0  0  0  0  0  0  0  0
    0.4212    7.3543    0.0000 O   0  0  0  0  0  0  0  0  0  0  0  0
   -0.4115    5.8296    0.0000 C   0  0  1  0  0  0  0  0  0  0  0  0
    0.4665    5.3510    0.0000 C   0  0  0  0  0  0  0  0  0  0  0  0
    1.3200    5.8720    0.0000 O   0  0  0  0  0  0  0  0  0  0  0  0
   -1.2679    5.3034    0.0000 O   0  0  0  0  0  0  0  0  0  0  0  0
   -2.1461    5.7923    0.0000 C   0  0  1  0  0  0  0  0  0  0  0  0
   -3.6452    4.8894    0.0000 O   0  0  0  0  0  0  0  0  0  0  0  0
   -3.6127    3.1397    0.0000 C   0  0  0  0  0  0  0  0  0  0  0  0
   -2.6868    2.6389    0.0000 C   0  0  0  0  0  0  0  0  0  0  0  0
   -1.7640    3.1535    0.0000 O   0  0  0  0  0  0  0  0  0  0  0  0
   -0.8675    2.5846    0.0000 C   0  0  0  0  0  0  0  0  0  0  0  0
   -0.8741    1.5609    0.0000 C   0  0  0  0  0  0  0  0  0  0  0  0
    0.0091    1.0378    0.0000 C   0  0  0  0  0  0  0  0  0  0  0  0
    0.8988    1.5382    0.0000 C   0  0  0  0  0  0  0  0  0  0  0  0
    0.9132    2.5639    0.0000 C   0  0  0  0  0  0  0  0  0  0  0  0
    0.0300    3.0871    0.0000 C   0  0  0  0  0  0  0  0  0  0  0  0
    0.0422    4.0870    0.0000 Cl  0  0  0  0  0  0  0  0  0  0  0  0
    1.8047    1.0299    0.0000 C   0  0  1  0  0  0  0  0  0  0  0  0
    2.6692    1.5326    0.0000 O   0  0  0  0  0  0  0  0  0  0  0  0
    1.7984   -0.0108    0.0000 C   0  0  1  0  0  0  0  0  0  0  0  0
    2.6607   -0.5172    0.0000 N   0  0  0  0  0  0  0  0  0  0  0  0
    3.5304   -0.0236    0.0000 C   0  0  0  0  0  0  0  0  0  0  0  0
    3.5378    0.9763    0.0000 O   0  0  0  0  0  0  0  0  0  0  0  0
    4.3927   -0.5300    0.0000 C   0  0  1  0  0  0  0  0  0  0  0  0
    5.2624   -0.0365    0.0000 C   0  0  0  0  0  0  0  0  0  0  0  0
    5.2698    0.9635    0.0000 C   0  0  0  0  0  0  0  0  0  0  0  0
    4.4075    1.4699    0.0000 C   0  0  0  0  0  0  0  0  0  0  0  0
    6.1395    1.4571    0.0000 C   0  0  0  0  0  0  0  0  0  0  0  0
    4.3853   -1.5300    0.0000 N   0  0  0  0  0  0  0  0  0  0  0  0
    5.2476   -2.0364    0.0000 C   0  0  0  0  0  0  0  0  0  0  0  0
    0.8932   -0.5229    0.0000 C   0  0  0  0  0  0  0  0  0  0  0  0
    0.8858   -1.5229    0.0000 O   0  0  0  0  0  0  0  0  0  0  0  0
   -0.0000    0.0000    0.0000 N   0  0  0  0  0  0  0  0  0  0  0  0
   -0.9046   -0.5120    0.0000 C   0  0  1  0  0  0  0  0  0  0  0  0
   -0.9117   -1.5120    0.0000 C   0  0  0  0  0  0  0  0  0  0  0  0
   -1.7813   -2.0058    0.0000 C   0  0  0  0  0  0  0  0  0  0  0  0
   -2.6437   -1.4997    0.0000 O   0  0  0  0  0  0  0  0  0  0  0  0
   -1.7884   -3.0058    0.0000 N   0  0  0  0  0  0  0  0  0  0  0  0
   -1.7979    0.0105    0.0000 C   0  0  0  0  0  0  0  0  0  0  0  0
   -1.7909    1.0105    0.0000 O   0  0  0  0  0  0  0  0  0  0  0  0
   -2.7026   -0.5018    0.0000 N   0  0  0  0  0  0  0  0  0  0  0  0
   -3.5958    0.0206    0.0000 C   0  0  1  0  0  0  0  0  0  0  0  0
   -4.4968   -0.4894    0.0000 C   0  0  0  0  0  0  0  0  0  0  0  0
   -4.5033   -1.4894    0.0000 O   0  0  0  0  0  0  0  0  0  0  0  0
   -5.3888    0.0309    0.0000 N   0  0  0  0  0  0  0  0  0  0  0  0
   -6.2803   -0.4778    0.0000 C   0  0  1  0  0  0  0  0  0  0  0  0
   -7.1775    0.0346    0.0000 C   0  0  0  0  0  0  0  0  0  0  0  0
   -7.1858    1.7846    0.0000 O   0  0  0  0  0  0  0  0  0  0  0  0
   -8.0649   -0.4834    0.0000 N   0  0  0  0  0  0  0  0  0  0  0  0
   -8.9580    0.0469    0.0000 C   0  0  1  0  0  0  0  0  0  0  0  0
   -8.9527    1.0787    0.0000 C   0  0  2  0  0  0  0  0  0  0  0  0
   -9.8174    1.5810    0.0000 O   0  0  0  0  0  0  0  0  0  0  0  0
   -8.0615    1.5930    0.0000 C   0  0  0  0  0  0  0  0  0  0  0  0
   -7.1660    1.0732    0.0000 C   0  0  0  0  0  0  0  0  0  0  0  0
   -6.2730    1.5860    0.0000 C   0  0  0  0  0  0  0  0  0  0  0  0
   -6.2703    2.6123    0.0000 C   0  0  0  0  0  0  0  0  0  0  0  0
   -5.3724    3.1193    0.0000 O   0  0  0  0  0  0  0  0  0  0  0  0
   -4.5123    2.6091    0.0000 C   0  0  0  0  0  0  0  0  0  0  0  0
   -4.4956    1.5698    0.0000 C   0  0  0  0  0  0  0  0  0  0  0  0
   -3.5871    1.0589    0.0000 C   0  0  0  0  0  0  0  0  0  0  0  0
   -2.6954    1.5872    0.0000 C   0  0  0  0  0  0  0  0  0  0  0  0
   -7.1632    3.1404    0.0000 C   0  0  0  0  0  0  0  0  0  0  0  0
   -7.1557    4.1404    0.0000 Cl  0  0  0  0  0  0  0  0  0  0  0  0
   -8.0640    2.6256    0.0000 C   0  0  0  0  0  0  0  0  0  0  0  0
   -9.8588   -0.4585    0.0000 C   0  0  0  0  0  0  0  0  0  0  0  0
  -10.7179    0.0533    0.0000 O   0  0  0  0  0  0  0  0  0  0  0  0
   -9.8745   -1.4963    0.0000 N   0  0  0  0  0  0  0  0  0  0  0  0
   -8.9755   -2.0265    0.0000 C   0  0  2  0  0  0  0  0  0  0  0  0
   -8.1045   -1.5353    0.0000 C   0  0  0  0  0  0  0  0  0  0  0  0
   -7.2435   -2.0440    0.0000 O   0  0  0  0  0  0  0  0  0  0  0  0
   -8.0944   -0.5353    0.0000 O   0  0  0  0  0  0  0  0  0  0  0  0
   -8.9868   -3.0609    0.0000 C   0  0  0  0  0  0  0  0  0  0  0  0
   -9.8811   -3.5644    0.0000 C   0  0  0  0  0  0  0  0  0  0  0  0
   -9.8951   -4.5956    0.0000 C   0  0  0  0  0  0  0  0  0  0  0  0
  -10.7671   -5.0851    0.0000 O   0  0  0  0  0  0  0  0  0  0  0  0
   -9.0070   -5.1211    0.0000 C   0  0  0  0  0  0  0  0  0  0  0  0
   -9.0187   -6.1210    0.0000 C   0  0  0  0  0  0  0  0  0  0  0  0
   -8.1586   -6.6312    0.0000 N   0  0  0  0  0  0  0  0  0  0  0  0
   -8.1704   -7.6311    0.0000 C   0  0  0  0  0  0  0  0  0  0  0  0
   -7.3103   -8.1412    0.0000 P   0  0  0  0  0  0  0  0  0  0  0  0
   -6.4502   -8.6514    0.0000 O   0  0  0  0  0  0  0  0  0  0  0  0
   -6.8002   -7.2812    0.0000 O   0  0  0  0  0  0  0  0  0  0  0  0
   -7.8204   -9.0013    0.0000 O   0  0  0  0  0  0  0  0  0  0  0  0
   -8.1050   -4.6156    0.0000 C   0  0  0  0  0  0  0  0  0  0  0  0
   -7.2437   -5.1238    0.0000 O   0  0  0  0  0  0  0  0  0  0  0  0
   -8.0987   -3.5866    0.0000 C   0  0  0  0  0  0  0  0  0  0  0  0
   -7.1701   -3.0859    0.0000 C   0  0  0  0  0  0  0  0  0  0  0  0
   -7.1774   -2.0402    0.0000 C   0  0  0  0  0  0  0  0  0  0  0  0
   -6.2704   -1.5081    0.0000 C   0  0  0  0  0  0  0  0  0  0  0  0
   -5.3562   -2.0216    0.0000 C   0  0  0  0  0  0  0  0  0  0  0  0
   -5.3509   -3.0753    0.0000 C   0  0  0  0  0  0  0  0  0  0  0  0
   -6.2579   -3.6075    0.0000 C   0  0  0  0  0  0  0  0  0  0  0  0
   -6.2523   -4.6075    0.0000 O   0  0  0  0  0  0  0  0  0  0  0  0
   -3.9454    8.7621    0.0000 O   0  0  0  0  0  0  0  0  0  0  0  0
   -3.9567    9.7672    0.0000 C   0  0  1  0  0  0  0  0  0  0  0  0
   -4.8297   10.2549    0.0000 C   0  0  0  0  0  0  0  0  0  0  0  0
   -3.0948   10.2846    0.0000 C   0  0  1  0  0  0  0  0  0  0  0  0
   -3.1105   11.2845    0.0000 O   0  0  0  0  0  0  0  0  0  0  0  0
   -3.6029   -0.9794    0.0000 H   0  0  0  0  0  0  0  0  0  0  0  0
   -6.2801    0.5222    0.0000 H   0  0  0  0  0  0  0  0  0  0  0  0
   -8.0877    0.5394    0.0000 H   0  0  0  0  0  0  0  0  0  0  0  0
  1  2  1  0  0  0  0
  2  3  1  0  0  0  0
  3  4  1  0  0  0  0
  4  5  1  0  0  0  0
  5  6  1  0  0  0  0
  6  7  1  0  0  0  0
  7  8  1  0  0  0  0
  8  9  1  0  0  0  0
  9 10  1  0  0  0  0
 10 11  1  0  0  0  0
 11 12  1  0  0  0  0
 12 13  1  0  0  0  0
 13 14  1  0  0  0  0
 14 15  1  0  0  0  0
 15120  1  0  0  0  0
 15 16  1  6  0  0  0
 15 17  1  0  0  0  0
 17 18  1  0  0  0  0
 18 19  1  6  0  0  0
 20 19  1  6  0  0  0
 20 29  1  0  0  0  0
 20 21  1  0  0  0  0
 21 22  1  1  0  0  0
 21 23  1  0  0  0  0
 23 24  1  6  0  0  0
 23 25  1  0  0  0  0
 25 26  1  1  0  0  0
 26 27  1  0  0  0  0
 25 28  1  0  0  0  0
 28 29  1  0  0  0  0
 29 30  1  1  0  0  0
 30 31  1  0  0  0  0
 31 81  2  0  0  0  0
 31 32  1  0  0  0  0
 32 84  2  0  0  0  0
 32 33  1  0  0  0  0
 33 34  1  0  0  0  0
 34 39  2  0  0  0  0
 34 35  1  0  0  0  0
 35 36  2  0  0  0  0
 36 37  1  0  0  0  0
 37 38  2  0  0  0  0
 38 39  1  0  0  0  0
 39 40  1  0  0  0  0
 37 41  1  0  0  0  0
 41 42  1  1  0  0  0
 41 43  1  0  0  0  0
 43 44  1  1  0  0  0
 44 45  1  0  0  0  0
 45 46  2  0  0  0  0
 47 45  1  1  0  0  0
 47 48  1  0  0  0  0
 48 49  1  0  0  0  0
 49 50  1  0  0  0  0
 49 51  1  0  0  0  0
 47 52  1  0  0  0  0
 52 53  1  0  0  0  0
 43 54  1  0  0  0  0
 54 55  2  0  0  0  0
 54 56  1  0  0  0  0
 56 57  1  0  0  0  0
 57 58  1  1  0  0  0
 58 59  1  0  0  0  0
 59 60  2  0  0  0  0
 59 61  1  0  0  0  0
 57 62  1  0  0  0  0
 62 63  2  0  0  0  0
 62 64  1  0  0  0  0
 64 65  1  0  0  0  0
 65 83  1  0  0  0  0
 65 66  1  0  0  0  0
 66 67  2  0  0  0  0
 66 68  1  0  0  0  0
 68 69  1  0  0  0  0
 69112  1  0  0  0  0
 69 70  1  0  0  0  0
 70 71  2  0  0  0  0
 70 72  1  0  0  0  0
 72 73  1  0  0  0  0
 73 74  1  0  0  0  0
 74 75  1  6  0  0  0
 74 76  1  0  0  0  0
 76 87  2  0  0  0  0
 76 77  1  0  0  0  0
 77 78  2  0  0  0  0
 78 79  1  0  0  0  0
 79 80  1  0  0  0  0
 80 81  1  0  0  0  0
 81 82  1  0  0  0  0
 82 83  2  0  0  0  0
 83 84  1  0  0  0  0
 79 85  2  0  0  0  0
 85 86  1  0  0  0  0
 85 87  1  0  0  0  0
 73 88  1  0  0  0  0
 88 89  2  0  0  0  0
 88 90  1  0  0  0  0
 90 91  1  0  0  0  0
 91 92  1  6  0  0  0
 92 93  2  0  0  0  0
 92 94  1  0  0  0  0
 91 95  1  0  0  0  0
 95109  2  0  0  0  0
 95 96  1  0  0  0  0
 96 97  2  0  0  0  0
 97 98  1  0  0  0  0
 97 99  1  0  0  0  0
 99100  1  0  0  0  0
100101  1  0  0  0  0
101102  1  0  0  0  0
102103  1  0  0  0  0
103104  2  0  0  0  0
103105  1  0  0  0  0
103106  1  0  0  0  0
 99107  2  0  0  0  0
107108  1  0  0  0  0
107109  1  0  0  0  0
109110  1  0  0  0  0
110115  2  0  0  0  0
110111  1  0  0  0  0
111112  2  0  0  0  0
112113  1  0  0  0  0
113114  2  0  0  0  0
114115  1  0  0  0  0
115116  1  0  0  0  0
 18117  1  0  0  0  0
117118  1  0  0  0  0
118119  1  1  0  0  0
118120  1  0  0  0  0
120121  1  1  0  0  0
 65122  1  6  0  0  0
 69123  1  1  0  0  0
 73124  1  1  0  0  0
M  END
>  <Name>
Telavancin

>  <CAS #>
372151-71-8

>  <human Clearance (mL/min/kg)>
0.2

>  <Primary mechanism (metabolic, biliary or renal)>
renal

>  <seqId>
876.0

>  <Code (mechanism and clearance degree index)>
R1

>  < Five M1 and R1 test groups>
R1_5

>  <formamide>
0

>  <prodrug phosphates>
0

>  <VolSurf_V>
3223.38

>  <VolSurf_S>
1971.61

>  <VolSurf_R>
1.63489

>  <VolSurf_G>
2.55385

>  <VolSurf_IW1>
0.0428471

>  <VolSurf_IW2>
0.0878267

>  <VolSurf_IW3>
0.159246

>  <VolSurf_IW4>
0.185994

>  <VolSurf_ID1>
0.0342843

>  <VolSurf_ID2>
0.0568327

>  <VolSurf_ID3>
0.0428777

>  <VolSurf_ID4>
0.0323612

>  <VolSurf_HL1>
13.0124

>  <VolSurf_HL2>
19.2826

>  <VolSurf_A>
10.384

>  <VolSurf_CP>
0.0857381

>  <VolSurf_POL>
180.951

>  <VolSurf_MW>
1755.63

>  <VolSurf_FLEX>
4.29958

>  <VolSurf_FLEX_RB>
0.0934691

>  <VolSurf_NCC>
5.0

>  <VolSurf_LOGP n-Oct>
1.951

>  <VolSurf_LOGP c-Hex>
-9.0

>  <VolSurf_PSA>
649.54

>  <VolSurf_HSA>
1322.07

>  <VolSurf_PSAR>
0.329446

>  <VolSurf_PHSAR>
0.491304

>  <VolSurf_LgD5>
-1.70888

>  <VolSurf_LgD6>
-0.17314

>  <VolSurf_LgD7>
0.313132

>  <VolSurf_LgD7.5>
0.123232

>  <VolSurf_LgD8>
-0.567885

>  <VolSurf_LgD9>
-3.59706

>  <VolSurf_LgD10>
-6.24334

>  <VolSurf_AUS7.4>
0.0

>  <VolSurf_%FU4>
0.0

>  <VolSurf_%FU5>
0.0

>  <VolSurf_%FU6>
0.0

>  <VolSurf_%FU7>
0.0

>  <VolSurf_%FU8>
0.0

>  <VolSurf_%FU9>
0.0

>  <VolSurf_%FU10>
0.0

>  <ID>
418

>  <MOKAID>
419

>  <Clearance Route>
possible billary

>  <PC1>
-5.27801

>  <PC2>
-13.9928

$$$$
Telithromycin
  -OEChem-08301611272D

 59 63  0     1  0  0  0  0  0999 V2000
    0.8938    0.4975    0.0000 C   0  0  0  0  0  0  0  0  0  0  0  0
    1.7580   -0.0055    0.0000 C   0  0  0  0  0  0  0  0  0  0  0  0
    2.6258    0.4914    0.0000 C   0  0  1  0  0  0  0  0  0  0  0  0
    2.6388    1.5043    0.0000 O   0  0  0  0  0  0  0  0  0  0  0  0
    1.7660    2.0200    0.0000 C   0  0  0  0  0  0  0  0  0  0  0  0
    1.7771    3.0199    0.0000 O   0  0  0  0  0  0  0  0  0  0  0  0
    0.8803    1.5228    0.0000 C   0  0  2  0  0  0  0  0  0  0  0  0
    0.0187    2.0303    0.0000 C   0  0  0  0  0  0  0  0  0  0  0  0
    0.8749    0.5119    0.0000 C   0  0  0  0  0  0  0  0  0  0  0  0
    2.3906   -0.3628    0.0000 O   0  0  0  0  0  0  0  0  0  0  0  0
    0.0000   -0.0000    0.0000 C   0  0  2  0  0  0  0  0  0  0  0  0
   -0.8675    0.4975    0.0000 C   0  0  0  0  0  0  0  0  0  0  0  0
    0.0000   -1.0138    0.0000 C   0  0  1  0  0  0  0  0  0  0  0  0
   -0.8666   -1.5129    0.0000 O   0  0  0  0  0  0  0  0  0  0  0  0
   -1.7321   -1.0120    0.0000 C   0  0  2  0  0  0  0  0  0  0  0  0
   -1.7280   -0.0068    0.0000 O   0  0  0  0  0  0  0  0  0  0  0  0
   -2.6024    0.4889    0.0000 C   0  0  2  0  0  0  0  0  0  0  0  0
   -2.6072    1.4889    0.0000 C   0  0  0  0  0  0  0  0  0  0  0  0
   -3.4720   -0.0153    0.0000 C   0  0  0  0  0  0  0  0  0  0  0  0
   -3.4672   -1.0153    0.0000 C   0  0  1  0  0  0  0  0  0  0  0  0
   -2.6016   -1.5162    0.0000 C   0  0  1  0  0  0  0  0  0  0  0  0
   -2.6012   -2.5162    0.0000 O   0  0  0  0  0  0  0  0  0  0  0  0
   -4.3323   -1.5170    0.0000 N   0  0  0  0  0  0  0  0  0  0  0  0
   -4.3304   -2.5169    0.0000 C   0  0  0  0  0  0  0  0  0  0  0  0
   -5.1992   -1.0186    0.0000 C   0  0  0  0  0  0  0  0  0  0  0  0
    0.8649   -1.5156    0.0000 C   0  0  1  0  0  0  0  0  0  0  0  0
    1.2098   -0.5770    0.0000 C   0  0  0  0  0  0  0  0  0  0  0  0
    0.8599   -2.5250    0.0000 C   0  0  0  0  0  0  0  0  0  0  0  0
    1.7342   -3.0390    0.0000 C   0  0  1  0  0  0  0  0  0  0  0  0
    1.7278   -4.0390    0.0000 C   0  0  0  0  0  0  0  0  0  0  0  0
    2.6157   -2.5359    0.0000 C   0  0  0  0  0  0  0  0  0  0  0  0
    3.4787   -3.0411    0.0000 O   0  0  0  0  0  0  0  0  0  0  0  0
    2.6228   -1.5190    0.0000 C   0  0  2  0  0  0  0  0  0  0  0  0
    1.1122   -0.6355    0.0000 C   0  0  0  0  0  0  0  0  0  0  0  0
    3.4942   -1.0208    0.0000 C   0  0  1  0  0  0  0  0  0  0  0  0
    4.4556   -1.3410    0.0000 N   0  0  0  0  0  0  0  0  0  0  0  0
    4.7576   -2.2943    0.0000 C   0  0  0  0  0  0  0  0  0  0  0  0
    5.7342   -2.5094    0.0000 C   0  0  0  0  0  0  0  0  0  0  0  0
    6.0363   -3.4627    0.0000 C   0  0  0  0  0  0  0  0  0  0  0  0
    7.0129   -3.6778    0.0000 C   0  0  0  0  0  0  0  0  0  0  0  0
    7.3149   -4.6311    0.0000 N   0  0  0  0  0  0  0  0  0  0  0  0
    8.2673   -4.9503    0.0000 C   0  0  0  0  0  0  0  0  0  0  0  0
    8.2561   -5.9518    0.0000 N   0  0  0  0  0  0  0  0  0  0  0  0
    7.3010   -6.2528    0.0000 C   0  0  0  0  0  0  0  0  0  0  0  0
    6.7226   -5.4371    0.0000 C   0  0  0  0  0  0  0  0  0  0  0  0
    6.9823   -7.2007    0.0000 C   0  0  0  0  0  0  0  0  0  0  0  0
    7.6428   -7.9516    0.0000 C   0  0  0  0  0  0  0  0  0  0  0  0
    7.3282   -8.9009    0.0000 C   0  0  0  0  0  0  0  0  0  0  0  0
    6.3432   -9.1012    0.0000 C   0  0  0  0  0  0  0  0  0  0  0  0
    5.6727   -8.3524    0.0000 N   0  0  0  0  0  0  0  0  0  0  0  0
    5.9973   -7.4011    0.0000 C   0  0  0  0  0  0  0  0  0  0  0  0
    5.0572   -0.5256    0.0000 C   0  0  0  0  0  0  0  0  0  0  0  0
    6.0572   -0.5329    0.0000 O   0  0  0  0  0  0  0  0  0  0  0  0
    4.4677    0.2984    0.0000 O   0  0  0  0  0  0  0  0  0  0  0  0
    3.5016   -0.0075    0.0000 C   0  0  2  0  0  0  0  0  0  0  0  0
    3.6070    0.9869    0.0000 C   0  0  0  0  0  0  0  0  0  0  0  0
    1.8490   -1.6932    0.0000 O   0  0  0  0  0  0  0  0  0  0  0  0
    2.4949   -0.9297    0.0000 C   0  0  0  0  0  0  0  0  0  0  0  0
    3.5930   -2.0159    0.0000 H   0  0  0  0  0  0  0  0  0  0  0  0
  1  2  1  0  0  0  0
  3  2  1  1  0  0  0
  3 55  1  0  0  0  0
  3  4  1  0  0  0  0
  4  5  1  0  0  0  0
  5  6  2  0  0  0  0
  5  7  1  0  0  0  0
  7  8  1  1  0  0  0
  7  9  1  0  0  0  0
  9 10  2  0  0  0  0
  9 11  1  0  0  0  0
 11 12  1  1  0  0  0
 11 13  1  0  0  0  0
 13 14  1  6  0  0  0
 15 14  1  1  0  0  0
 15 21  1  0  0  0  0
 15 16  1  0  0  0  0
 16 17  1  0  0  0  0
 17 18  1  1  0  0  0
 17 19  1  0  0  0  0
 19 20  1  0  0  0  0
 20 21  1  0  0  0  0
 21 22  1  6  0  0  0
 20 23  1  1  0  0  0
 23 24  1  0  0  0  0
 23 25  1  0  0  0  0
 13 26  1  0  0  0  0
 26 27  1  1  0  0  0
 26 28  1  0  0  0  0
 28 29  1  0  0  0  0
 29 30  1  6  0  0  0
 29 31  1  0  0  0  0
 31 32  2  0  0  0  0
 31 33  1  0  0  0  0
 33 34  1  6  0  0  0
 33 35  1  0  0  0  0
 35 55  1  0  0  0  0
 35 36  1  0  0  0  0
 36 37  1  0  0  0  0
 37 38  1  0  0  0  0
 38 39  1  0  0  0  0
 39 40  1  0  0  0  0
 40 41  1  0  0  0  0
 41 45  1  0  0  0  0
 41 42  1  0  0  0  0
 42 43  2  0  0  0  0
 43 44  1  0  0  0  0
 44 45  2  0  0  0  0
 44 46  1  0  0  0  0
 46 51  2  0  0  0  0
 46 47  1  0  0  0  0
 47 48  2  0  0  0  0
 48 49  1  0  0  0  0
 49 50  2  0  0  0  0
 50 51  1  0  0  0  0
 36 52  1  0  0  0  0
 52 53  2  0  0  0  0
 52 54  1  0  0  0  0
 54 55  1  0  0  0  0
 55 56  1  6  0  0  0
 26 57  1  0  0  0  0
 57 58  1  0  0  0  0
 35 59  1  1  0  0  0
M  END
>  <Name>
Telithromycin

>  <CAS #>
191114-48-4

>  <human Clearance (mL/min/kg)>
14.0

>  <Primary mechanism (metabolic, biliary or renal)>
metabolic

>  <seqId>
878.0

>  <Code (mechanism and clearance degree index)>
M1

>  < Five M1 and R1 test groups>
M1_3

>  <formamide>
0

>  <prodrug phosphates>
0

>  <VolSurf_V>
1639.12

>  <VolSurf_S>
971.833

>  <VolSurf_R>
1.68663

>  <VolSurf_G>
1.738

>  <VolSurf_IW1>
0.037327

>  <VolSurf_IW2>
0.0919992

>  <VolSurf_IW3>
0.223166

>  <VolSurf_IW4>
0.421226

>  <VolSurf_ID1>
0.0335978

>  <VolSurf_ID2>
0.126551

>  <VolSurf_ID3>
0.198729

>  <VolSurf_ID4>
0.262562

>  <VolSurf_HL1>
3.15

>  <VolSurf_HL2>
2.82123

>  <VolSurf_A>
7.6695

>  <VolSurf_CP>
0.265728

>  <VolSurf_POL>
86.6221

>  <VolSurf_MW>
813.011

>  <VolSurf_FLEX>
2.63794

>  <VolSurf_FLEX_RB>
0.114693

>  <VolSurf_NCC>
1.0

>  <VolSurf_LOGP n-Oct>
3.74

>  <VolSurf_LOGP c-Hex>
2.418

>  <VolSurf_PSA>
187.25

>  <VolSurf_HSA>
784.583

>  <VolSurf_PSAR>
0.192677

>  <VolSurf_PHSAR>
0.238662

>  <VolSurf_LgD5>
-0.198068

>  <VolSurf_LgD6>
1.01521

>  <VolSurf_LgD7>
2.05423

>  <VolSurf_LgD7.5>
2.53914

>  <VolSurf_LgD8>
2.98478

>  <VolSurf_LgD9>
3.57282

>  <VolSurf_LgD10>
3.71598

>  <VolSurf_AUS7.4>
0.758668

>  <VolSurf_%FU4>
2.31412E-5

>  <VolSurf_%FU5>
0.00493727

>  <VolSurf_%FU6>
0.1672

>  <VolSurf_%FU7>
2.03597

>  <VolSurf_%FU8>
17.5483

>  <VolSurf_%FU9>
68.0404

>  <VolSurf_%FU10>
94.6188

>  <ID>
419

>  <MOKAID>
420

>  <Clearance Route>
possible billary

>  <PC1>
1.11756

>  <PC2>
-5.66804

$$$$
Telmisartan
  -OEChem-08301611272D

 39 44  0     0  0  0  0  0  0999 V2000
    5.7857    0.3626    0.0000 C   0  0  0  0  0  0  0  0  0  0  0  0
    4.7857    0.3625    0.0000 C   0  0  0  0  0  0  0  0  0  0  0  0
    4.2858   -0.5035    0.0000 C   0  0  0  0  0  0  0  0  0  0  0  0
    3.2858   -0.5036    0.0000 C   0  0  0  0  0  0  0  0  0  0  0  0
    2.6938    0.3110    0.0000 N   0  0  0  0  0  0  0  0  0  0  0  0
    1.7360   -0.0000    0.0000 C   0  0  0  0  0  0  0  0  0  0  0  0
    0.8680    0.5079    0.0000 C   0  0  0  0  0  0  0  0  0  0  0  0
    0.8680    1.5079    0.0000 C   0  0  0  0  0  0  0  0  0  0  0  0
    0.0000    0.0000    0.0000 C   0  0  0  0  0  0  0  0  0  0  0  0
   -0.0000   -1.0058    0.0000 C   0  0  0  0  0  0  0  0  0  0  0  0
    0.8680   -1.5037    0.0000 C   0  0  0  0  0  0  0  0  0  0  0  0
    1.7360   -1.0071    0.0000 C   0  0  0  0  0  0  0  0  0  0  0  0
    2.6938   -1.3184    0.0000 N   0  0  0  0  0  0  0  0  0  0  0  0
    3.0028   -2.2695    0.0000 C   0  0  0  0  0  0  0  0  0  0  0  0
    3.9809   -2.4774    0.0000 C   0  0  0  0  0  0  0  0  0  0  0  0
    4.6513   -1.7285    0.0000 C   0  0  0  0  0  0  0  0  0  0  0  0
    5.6295   -1.9364    0.0000 C   0  0  0  0  0  0  0  0  0  0  0  0
    5.9441   -2.8857    0.0000 C   0  0  0  0  0  0  0  0  0  0  0  0
    5.2736   -3.6346    0.0000 C   0  0  0  0  0  0  0  0  0  0  0  0
    4.2886   -3.4343    0.0000 C   0  0  0  0  0  0  0  0  0  0  0  0
    6.9231   -3.0893    0.0000 C   0  0  0  0  0  0  0  0  0  0  0  0
    7.5901   -2.3442    0.0000 C   0  0  0  0  0  0  0  0  0  0  0  0
    8.5701   -2.5436    0.0000 C   0  0  0  0  0  0  0  0  0  0  0  0
    8.8862   -3.4978    0.0000 C   0  0  0  0  0  0  0  0  0  0  0  0
    8.2224   -4.2526    0.0000 C   0  0  0  0  0  0  0  0  0  0  0  0
    7.2393   -4.0435    0.0000 C   0  0  0  0  0  0  0  0  0  0  0  0
    6.5723   -4.7886    0.0000 C   0  0  0  0  0  0  0  0  0  0  0  0
    5.5935   -4.5834    0.0000 O   0  0  0  0  0  0  0  0  0  0  0  0
    6.8840   -5.7387    0.0000 O   0  0  0  0  0  0  0  0  0  0  0  0
   -0.8653   -1.5070    0.0000 C   0  0  0  0  0  0  0  0  0  0  0  0
   -0.9693   -2.5088    0.0000 N   0  0  0  0  0  0  0  0  0  0  0  0
   -1.9541   -2.7194    0.0000 C   0  0  0  0  0  0  0  0  0  0  0  0
   -2.4564   -3.5842    0.0000 C   0  0  0  0  0  0  0  0  0  0  0  0
   -3.4570   -3.5883    0.0000 C   0  0  0  0  0  0  0  0  0  0  0  0
   -3.9611   -2.7179    0.0000 C   0  0  0  0  0  0  0  0  0  0  0  0
   -3.4645   -1.8434    0.0000 C   0  0  0  0  0  0  0  0  0  0  0  0
   -2.4588   -1.8479    0.0000 C   0  0  0  0  0  0  0  0  0  0  0  0
   -1.7859   -1.0988    0.0000 N   0  0  0  0  0  0  0  0  0  0  0  0
   -1.9951   -0.1209    0.0000 C   0  0  0  0  0  0  0  0  0  0  0  0
  1  2  1  0  0  0  0
  2  3  1  0  0  0  0
  3  4  1  0  0  0  0
  4 13  1  0  0  0  0
  4  5  2  0  0  0  0
  5  6  1  0  0  0  0
  6 12  2  0  0  0  0
  6  7  1  0  0  0  0
  7  8  1  0  0  0  0
  7  9  2  0  0  0  0
  9 10  1  0  0  0  0
 10 11  2  0  0  0  0
 11 12  1  0  0  0  0
 12 13  1  0  0  0  0
 13 14  1  0  0  0  0
 14 15  1  0  0  0  0
 15 20  2  0  0  0  0
 15 16  1  0  0  0  0
 16 17  2  0  0  0  0
 17 18  1  0  0  0  0
 18 19  2  0  0  0  0
 19 20  1  0  0  0  0
 18 21  1  0  0  0  0
 21 26  2  0  0  0  0
 21 22  1  0  0  0  0
 22 23  2  0  0  0  0
 23 24  1  0  0  0  0
 24 25  2  0  0  0  0
 25 26  1  0  0  0  0
 26 27  1  0  0  0  0
 27 28  2  0  0  0  0
 27 29  1  0  0  0  0
 10 30  1  0  0  0  0
 30 38  1  0  0  0  0
 30 31  2  0  0  0  0
 31 32  1  0  0  0  0
 32 37  2  0  0  0  0
 32 33  1  0  0  0  0
 33 34  2  0  0  0  0
 34 35  1  0  0  0  0
 35 36  2  0  0  0  0
 36 37  1  0  0  0  0
 37 38  1  0  0  0  0
 38 39  1  0  0  0  0
M  END
>  <Name>
Telmisartan

>  <CAS #>
144701-48-4

>  <human Clearance (mL/min/kg)>
8.4

>  <Primary mechanism (metabolic, biliary or renal)>
biliary

>  <seqId>
879.0

>  <Code (mechanism and clearance degree index)>
B1

>  < Five M1 and R1 test groups>
31

>  <formamide>
0

>  <prodrug phosphates>
0

>  <VolSurf_V>
1139.25

>  <VolSurf_S>
728.927

>  <VolSurf_R>
1.56291

>  <VolSurf_G>
1.62435

>  <VolSurf_IW1>
0.0491372

>  <VolSurf_IW2>
0.202936

>  <VolSurf_IW3>
0.612708

>  <VolSurf_IW4>
0.944102

>  <VolSurf_ID1>
0.0295713

>  <VolSurf_ID2>
0.0620982

>  <VolSurf_ID3>
0.103213

>  <VolSurf_ID4>
0.151088

>  <VolSurf_HL1>
0.713287

>  <VolSurf_HL2>
0.593272

>  <VolSurf_A>
6.57969

>  <VolSurf_CP>
2.74902

>  <VolSurf_POL>
58.419

>  <VolSurf_MW>
513.609

>  <VolSurf_FLEX>
2.63514

>  <VolSurf_FLEX_RB>
0.263514

>  <VolSurf_NCC>
1.0

>  <VolSurf_LOGP n-Oct>
7.669

>  <VolSurf_LOGP c-Hex>
5.409

>  <VolSurf_PSA>
77.4

>  <VolSurf_HSA>
651.527

>  <VolSurf_PSAR>
0.106183

>  <VolSurf_PHSAR>
0.118798

>  <VolSurf_LgD5>
5.32735

>  <VolSurf_LgD6>
5.27206

>  <VolSurf_LgD7>
4.88536

>  <VolSurf_LgD7.5>
4.6141

>  <VolSurf_LgD8>
4.41837

>  <VolSurf_LgD9>
4.28532

>  <VolSurf_LgD10>
4.26887

>  <VolSurf_AUS7.4>
0.0

>  <VolSurf_%FU4>
0.0

>  <VolSurf_%FU5>
0.0

>  <VolSurf_%FU6>
0.0

>  <VolSurf_%FU7>
0.0

>  <VolSurf_%FU8>
0.0

>  <VolSurf_%FU9>
0.0

>  <VolSurf_%FU10>
0.0

>  <ID>
420

>  <MOKAID>
421

>  <Clearance Route>
possible billary

>  <PC1>
3.26744

>  <PC2>
-4.281569999999999

$$$$
Tenofovir
  -OEChem-08301611272D

 19 20  0     1  0  0  0  0  0999 V2000
    0.4875   -3.3125    0.0000 C   0  0  0  0  0  0  0  0  0  0  0  0
    1.4656   -3.5205    0.0000 C   0  0  2  0  0  0  0  0  0  0  0  0
    2.1348   -2.7774    0.0000 C   0  0  0  0  0  0  0  0  0  0  0  0
    1.8258   -1.8263    0.0000 N   0  0  0  0  0  0  0  0  0  0  0  0
    2.4178   -1.0115    0.0000 C   0  0  0  0  0  0  0  0  0  0  0  0
    1.8258   -0.1969    0.0000 N   0  0  0  0  0  0  0  0  0  0  0  0
    0.8680   -0.5079    0.0000 C   0  0  0  0  0  0  0  0  0  0  0  0
    0.0000    0.0000    0.0000 C   0  0  0  0  0  0  0  0  0  0  0  0
    0.0000    1.0000    0.0000 N   0  0  0  0  0  0  0  0  0  0  0  0
   -0.8680   -0.5079    0.0000 N   0  0  0  0  0  0  0  0  0  0  0  0
   -0.8680   -1.5137    0.0000 C   0  0  0  0  0  0  0  0  0  0  0  0
   -0.0000   -2.0116    0.0000 N   0  0  0  0  0  0  0  0  0  0  0  0
    0.8680   -1.5150    0.0000 C   0  0  0  0  0  0  0  0  0  0  0  0
    1.7746   -4.4716    0.0000 O   0  0  0  0  0  0  0  0  0  0  0  0
    1.1054   -5.2147    0.0000 C   0  0  0  0  0  0  0  0  0  0  0  0
    1.4144   -6.1657    0.0000 P   0  0  0  0  0  0  0  0  0  0  0  0
    1.7234   -7.1168    0.0000 O   0  0  0  0  0  0  0  0  0  0  0  0
    2.3655   -5.8568    0.0000 O   0  0  0  0  0  0  0  0  0  0  0  0
    0.4633   -6.4747    0.0000 O   0  0  0  0  0  0  0  0  0  0  0  0
  2  1  1  6  0  0  0
  2  3  1  0  0  0  0
  3  4  1  0  0  0  0
  4 13  1  0  0  0  0
  4  5  1  0  0  0  0
  5  6  2  0  0  0  0
  6  7  1  0  0  0  0
  7 13  2  0  0  0  0
  7  8  1  0  0  0  0
  8  9  1  0  0  0  0
  8 10  2  0  0  0  0
 10 11  1  0  0  0  0
 11 12  2  0  0  0  0
 12 13  1  0  0  0  0
  2 14  1  0  0  0  0
 14 15  1  0  0  0  0
 15 16  1  0  0  0  0
 16 17  2  0  0  0  0
 16 18  1  0  0  0  0
 16 19  1  0  0  0  0
M  END
>  <Name>
Tenofovir

>  <CAS #>
147127-20-6

>  <human Clearance (mL/min/kg)>
3.1

>  <Primary mechanism (metabolic, biliary or renal)>
renal

>  <seqId>
884.0

>  <Code (mechanism and clearance degree index)>
R1

>  < Five M1 and R1 test groups>
R1_5

>  <formamide>
0

>  <prodrug phosphates>
0

>  <VolSurf_V>
582.375

>  <VolSurf_S>
428.329

>  <VolSurf_R>
1.35965

>  <VolSurf_G>
1.43132

>  <VolSurf_IW1>
0.0642502

>  <VolSurf_IW2>
0.131555

>  <VolSurf_IW3>
0.290162

>  <VolSurf_IW4>
0.76479

>  <VolSurf_ID1>
0.120931

>  <VolSurf_ID2>
0.2609

>  <VolSurf_ID3>
0.341576

>  <VolSurf_ID4>
0.393407

>  <VolSurf_HL1>
6.74249

>  <VolSurf_HL2>
4.52941

>  <VolSurf_A>
4.86123

>  <VolSurf_CP>
0.189966

>  <VolSurf_POL>
29.336

>  <VolSurf_MW>
285.196

>  <VolSurf_FLEX>
1.7125

>  <VolSurf_FLEX_RB>
0.244643

>  <VolSurf_NCC>
1.0

>  <VolSurf_LOGP n-Oct>
-1.253

>  <VolSurf_LOGP c-Hex>
-4.162

>  <VolSurf_PSA>
130.66

>  <VolSurf_HSA>
297.669

>  <VolSurf_PSAR>
0.305046

>  <VolSurf_PHSAR>
0.438944

>  <VolSurf_LgD5>
-4.5064

>  <VolSurf_LgD6>
-5.65146

>  <VolSurf_LgD7>
-6.32013

>  <VolSurf_LgD7.5>
-6.43732

>  <VolSurf_LgD8>
-6.48123

>  <VolSurf_LgD9>
-6.50078

>  <VolSurf_LgD10>
-6.50278

>  <VolSurf_AUS7.4>
0.0

>  <VolSurf_%FU4>
0.0

>  <VolSurf_%FU5>
0.0

>  <VolSurf_%FU6>
0.0

>  <VolSurf_%FU7>
0.0

>  <VolSurf_%FU8>
0.0

>  <VolSurf_%FU9>
0.0

>  <VolSurf_%FU10>
0.0

>  <ID>
421

>  <MOKAID>
422

>  <Clearance Route>
renal

>  <PC1>
-5.40206

>  <PC2>
3.08671

$$$$
Tenoxicam
  -OEChem-08301611272D

 22 24  0     1  0  0  0  0  0999 V2000
   -0.8675    0.4975    0.0000 C   0  0  0  0  0  0  0  0  0  0  0  0
    0.0000    0.0000    0.0000 N   0  0  3  0  0  0  0  0  0  0  0  0
   -0.0000   -1.0058    0.0000 C   0  0  0  0  0  0  0  0  0  0  0  0
    0.8680   -1.5037    0.0000 C   0  0  0  0  0  0  0  0  0  0  0  0
    0.8674   -2.5037    0.0000 O   0  0  0  0  0  0  0  0  0  0  0  0
    1.7360   -1.0071    0.0000 C   0  0  0  0  0  0  0  0  0  0  0  0
    2.6938   -1.3184    0.0000 S   0  0  0  0  0  0  0  0  0  0  0  0
    3.2858   -0.5036    0.0000 C   0  0  0  0  0  0  0  0  0  0  0  0
    2.6938    0.3110    0.0000 C   0  0  0  0  0  0  0  0  0  0  0  0
    1.7360   -0.0000    0.0000 C   0  0  0  0  0  0  0  0  0  0  0  0
    0.8680    0.5079    0.0000 S   0  0  0  0  0  0  0  0  0  0  0  0
    0.2237    1.2727    0.0000 O   0  0  0  0  0  0  0  0  0  0  0  0
    1.5123    1.2727    0.0000 O   0  0  0  0  0  0  0  0  0  0  0  0
   -0.8653   -1.5070    0.0000 C   0  0  0  0  0  0  0  0  0  0  0  0
   -1.7320   -1.0082    0.0000 O   0  0  0  0  0  0  0  0  0  0  0  0
   -0.8639   -2.5070    0.0000 N   0  0  0  0  0  0  0  0  0  0  0  0
   -1.7292   -3.0082    0.0000 C   0  0  0  0  0  0  0  0  0  0  0  0
   -1.7249   -4.0134    0.0000 C   0  0  0  0  0  0  0  0  0  0  0  0
   -2.5902   -4.5147    0.0000 C   0  0  0  0  0  0  0  0  0  0  0  0
   -3.4599   -4.0210    0.0000 C   0  0  0  0  0  0  0  0  0  0  0  0
   -3.4642   -3.0158    0.0000 C   0  0  0  0  0  0  0  0  0  0  0  0
   -2.5989   -2.5043    0.0000 N   0  0  0  0  0  0  0  0  0  0  0  0
  1  2  1  0  0  0  0
  2 11  1  0  0  0  0
  2  3  1  0  0  0  0
  3  4  2  0  0  0  0
  4  5  1  0  0  0  0
  4  6  1  0  0  0  0
  6 10  2  0  0  0  0
  6  7  1  0  0  0  0
  7  8  1  0  0  0  0
  8  9  2  0  0  0  0
  9 10  1  0  0  0  0
 10 11  1  0  0  0  0
 11 12  2  0  0  0  0
 11 13  2  0  0  0  0
  3 14  1  0  0  0  0
 14 15  2  0  0  0  0
 14 16  1  0  0  0  0
 16 17  1  0  0  0  0
 17 22  2  0  0  0  0
 17 18  1  0  0  0  0
 18 19  2  0  0  0  0
 19 20  1  0  0  0  0
 20 21  2  0  0  0  0
 21 22  1  0  0  0  0
M  END
>  <Name>
Tenoxicam

>  <CAS #>
59804-37-4

>  <human Clearance (mL/min/kg)>
0.03

>  <Primary mechanism (metabolic, biliary or renal)>
Metabolic

>  <seqId>
885.0

>  <Code (mechanism and clearance degree index)>
M1

>  < Five M1 and R1 test groups>
M1_2

>  <formamide>
0

>  <prodrug phosphates>
0

>  <VolSurf_V>
648.125

>  <VolSurf_S>
443.545

>  <VolSurf_R>
1.46124

>  <VolSurf_G>
1.35526

>  <VolSurf_IW1>
0.0671355

>  <VolSurf_IW2>
0.169438

>  <VolSurf_IW3>
0.374304

>  <VolSurf_IW4>
0.600339

>  <VolSurf_ID1>
0.0692528

>  <VolSurf_ID2>
0.141691

>  <VolSurf_ID3>
0.216525

>  <VolSurf_ID4>
0.31595

>  <VolSurf_HL1>
2.95161

>  <VolSurf_HL2>
1.84783

>  <VolSurf_A>
3.75011

>  <VolSurf_CP>
0.453364

>  <VolSurf_POL>
32.317

>  <VolSurf_MW>
336.366

>  <VolSurf_FLEX>
0.428268

>  <VolSurf_FLEX_RB>
0.142756

>  <VolSurf_NCC>
1.0

>  <VolSurf_LOGP n-Oct>
2.539

>  <VolSurf_LOGP c-Hex>
-2.76

>  <VolSurf_PSA>
121.732

>  <VolSurf_HSA>
321.812

>  <VolSurf_PSAR>
0.274454

>  <VolSurf_PHSAR>
0.378272

>  <VolSurf_LgD5>
0.0598754

>  <VolSurf_LgD6>
-0.451009

>  <VolSurf_LgD7>
-0.8611

>  <VolSurf_LgD7.5>
-0.926463

>  <VolSurf_LgD8>
-0.949736

>  <VolSurf_LgD9>
-0.959859

>  <VolSurf_LgD10>
-0.960886

>  <VolSurf_AUS7.4>
0.0

>  <VolSurf_%FU4>
0.0

>  <VolSurf_%FU5>
0.0

>  <VolSurf_%FU6>
0.0

>  <VolSurf_%FU7>
0.0

>  <VolSurf_%FU8>
0.0

>  <VolSurf_%FU9>
0.0

>  <VolSurf_%FU10>
0.0

>  <ID>
422

>  <MOKAID>
423

>  <Clearance Route>
renal

>  <PC1>
-1.24475

>  <PC2>
1.38449

$$$$
Terazosin
  -OEChem-08301611272D

 28 31  0     1  0  0  0  0  0999 V2000
   -0.8704    2.5031    0.0000 C   0  0  0  0  0  0  0  0  0  0  0  0
   -0.8675    1.5031    0.0000 O   0  0  0  0  0  0  0  0  0  0  0  0
   -0.0000    1.0056    0.0000 C   0  0  0  0  0  0  0  0  0  0  0  0
    0.8679    1.5135    0.0000 C   0  0  0  0  0  0  0  0  0  0  0  0
    1.7358    1.0056    0.0000 C   0  0  0  0  0  0  0  0  0  0  0  0
    2.6012    1.5123    0.0000 N   0  0  0  0  0  0  0  0  0  0  0  0
    3.4735    1.0079    0.0000 C   0  0  0  0  0  0  0  0  0  0  0  0
    3.4748    0.0023    0.0000 N   0  0  0  0  0  0  0  0  0  0  0  0
    2.6038   -0.4989    0.0000 C   0  0  0  0  0  0  0  0  0  0  0  0
    2.6037   -1.4989    0.0000 N   0  0  0  0  0  0  0  0  0  0  0  0
    1.7371    0.0000    0.0000 C   0  0  0  0  0  0  0  0  0  0  0  0
    0.8679   -0.4977    0.0000 C   0  0  0  0  0  0  0  0  0  0  0  0
    0.0000    0.0000    0.0000 C   0  0  0  0  0  0  0  0  0  0  0  0
   -0.8653   -0.5013    0.0000 O   0  0  0  0  0  0  0  0  0  0  0  0
   -0.8638   -1.5013    0.0000 C   0  0  0  0  0  0  0  0  0  0  0  0
    4.3394    1.5082    0.0000 N   0  0  0  0  0  0  0  0  0  0  0  0
    5.2127    1.0110    0.0000 C   0  0  0  0  0  0  0  0  0  0  0  0
    6.0830    1.5138    0.0000 C   0  0  0  0  0  0  0  0  0  0  0  0
    6.0799    2.5138    0.0000 N   0  0  0  0  0  0  0  0  0  0  0  0
    5.2151    3.0159    0.0000 C   0  0  0  0  0  0  0  0  0  0  0  0
    4.3449    2.5131    0.0000 C   0  0  0  0  0  0  0  0  0  0  0  0
    6.9458    3.0141    0.0000 C   0  0  0  0  0  0  0  0  0  0  0  0
    7.8120    2.5144    0.0000 O   0  0  0  0  0  0  0  0  0  0  0  0
    6.9455    4.0141    0.0000 C   0  0  3  0  0  0  0  0  0  0  0  0
    6.1355    4.6034    0.0000 C   0  0  0  0  0  0  0  0  0  0  0  0
    6.4433    5.5564    0.0000 C   0  0  0  0  0  0  0  0  0  0  0  0
    7.4434    5.5555    0.0000 C   0  0  0  0  0  0  0  0  0  0  0  0
    7.7575    4.6056    0.0000 O   0  0  0  0  0  0  0  0  0  0  0  0
  1  2  1  0  0  0  0
  2  3  1  0  0  0  0
  3 13  2  0  0  0  0
  3  4  1  0  0  0  0
  4  5  2  0  0  0  0
  5 11  1  0  0  0  0
  5  6  1  0  0  0  0
  6  7  2  0  0  0  0
  7  8  1  0  0  0  0
  8  9  2  0  0  0  0
  9 10  1  0  0  0  0
  9 11  1  0  0  0  0
 11 12  2  0  0  0  0
 12 13  1  0  0  0  0
 13 14  1  0  0  0  0
 14 15  1  0  0  0  0
  7 16  1  0  0  0  0
 16 21  1  0  0  0  0
 16 17  1  0  0  0  0
 17 18  1  0  0  0  0
 18 19  1  0  0  0  0
 19 20  1  0  0  0  0
 20 21  1  0  0  0  0
 19 22  1  0  0  0  0
 22 23  2  0  0  0  0
 22 24  1  0  0  0  0
 24 28  1  0  0  0  0
 24 25  1  0  0  0  0
 25 26  1  0  0  0  0
 26 27  1  0  0  0  0
 27 28  1  0  0  0  0
M  END
>  <Name>
Terazosin

>  <CAS #>
63590-64-7

>  <human Clearance (mL/min/kg)>
1.1

>  <Primary mechanism (metabolic, biliary or renal)>
Metabolic

>  <seqId>
886.0

>  <Code (mechanism and clearance degree index)>
M1

>  < Five M1 and R1 test groups>
M1_4

>  <formamide>
0

>  <prodrug phosphates>
0

>  <VolSurf_V>
837.25

>  <VolSurf_S>
571.664

>  <VolSurf_R>
1.46458

>  <VolSurf_G>
1.53508

>  <VolSurf_IW1>
0.0585906

>  <VolSurf_IW2>
0.151497

>  <VolSurf_IW3>
0.499154

>  <VolSurf_IW4>
0.962887

>  <VolSurf_ID1>
0.0087145

>  <VolSurf_ID2>
0.0770359

>  <VolSurf_ID3>
0.118142

>  <VolSurf_ID4>
0.134866

>  <VolSurf_HL1>
1.7991

>  <VolSurf_HL2>
1.04242

>  <VolSurf_A>
4.39498

>  <VolSurf_CP>
1.27035

>  <VolSurf_POL>
39.972

>  <VolSurf_MW>
387.433

>  <VolSurf_FLEX>
0.834196

>  <VolSurf_FLEX_RB>
0.104275

>  <VolSurf_NCC>
0.0

>  <VolSurf_LOGP n-Oct>
1.987

>  <VolSurf_LOGP c-Hex>
-1.291

>  <VolSurf_PSA>
109.76

>  <VolSurf_HSA>
461.904

>  <VolSurf_PSAR>
0.192001

>  <VolSurf_PHSAR>
0.237625

>  <VolSurf_LgD5>
0.347614

>  <VolSurf_LgD6>
1.26181

>  <VolSurf_LgD7>
1.83116

>  <VolSurf_LgD7.5>
1.93143

>  <VolSurf_LgD8>
1.96864

>  <VolSurf_LgD9>
1.98513

>  <VolSurf_LgD10>
1.98681

>  <VolSurf_AUS7.4>
1.93465

>  <VolSurf_%FU4>
0.231007

>  <VolSurf_%FU5>
2.2632

>  <VolSurf_%FU6>
18.8024

>  <VolSurf_%FU7>
69.8398

>  <VolSurf_%FU8>
95.8603

>  <VolSurf_%FU9>
99.57

>  <VolSurf_%FU10>
99.9568

>  <ID>
423

>  <MOKAID>
424

>  <Clearance Route>
metabolic

>  <PC1>
2.22695

>  <PC2>
-0.6784899999999999

$$$$
Terodiline
  -OEChem-08301611272D

 21 22  0     1  0  0  0  0  0999 V2000
    1.7291    0.0002    0.0000 C   0  0  0  0  0  0  0  0  0  0  0  0
    2.5966    0.4976    0.0000 C   0  0  3  0  0  0  0  0  0  0  0  0
    2.5995    1.4976    0.0000 C   0  0  0  0  0  0  0  0  0  0  0  0
    1.7350    2.0001    0.0000 C   0  0  0  0  0  0  0  0  0  0  0  0
    0.8675    1.5027    0.0000 C   0  0  0  0  0  0  0  0  0  0  0  0
    0.8675    0.4975    0.0000 C   0  0  0  0  0  0  0  0  0  0  0  0
    0.0000    0.0000    0.0000 C   0  0  0  0  0  0  0  0  0  0  0  0
   -0.8675    0.4975    0.0000 C   0  0  0  0  0  0  0  0  0  0  0  0
   -0.8675    1.5027    0.0000 C   0  0  0  0  0  0  0  0  0  0  0  0
    0.0000    2.0104    0.0000 C   0  0  0  0  0  0  0  0  0  0  0  0
    1.7379    3.0001    0.0000 C   0  0  0  0  0  0  0  0  0  0  0  0
    0.8674    3.5027    0.0000 C   0  0  0  0  0  0  0  0  0  0  0  0
    0.8703    4.5028    0.0000 C   0  0  0  0  0  0  0  0  0  0  0  0
    1.7349    5.0053    0.0000 C   0  0  0  0  0  0  0  0  0  0  0  0
    2.6054    4.5027    0.0000 C   0  0  0  0  0  0  0  0  0  0  0  0
    2.6114    3.4976    0.0000 C   0  0  0  0  0  0  0  0  0  0  0  0
    3.4611   -0.0050    0.0000 N   0  0  0  0  0  0  0  0  0  0  0  0
    3.4582   -1.0050    0.0000 C   0  0  0  0  0  0  0  0  0  0  0  0
    4.4582   -1.0079    0.0000 C   0  0  0  0  0  0  0  0  0  0  0  0
    2.4582   -1.0020    0.0000 C   0  0  0  0  0  0  0  0  0  0  0  0
    3.4552   -2.0050    0.0000 C   0  0  0  0  0  0  0  0  0  0  0  0
  1  2  1  0  0  0  0
  2  3  1  0  0  0  0
  3  4  1  0  0  0  0
  4  5  1  0  0  0  0
  5 10  2  0  0  0  0
  5  6  1  0  0  0  0
  6  7  2  0  0  0  0
  7  8  1  0  0  0  0
  8  9  2  0  0  0  0
  9 10  1  0  0  0  0
  4 11  1  0  0  0  0
 11 16  2  0  0  0  0
 11 12  1  0  0  0  0
 12 13  2  0  0  0  0
 13 14  1  0  0  0  0
 14 15  2  0  0  0  0
 15 16  1  0  0  0  0
  2 17  1  0  0  0  0
 17 18  1  0  0  0  0
 18 19  1  0  0  0  0
 18 20  1  0  0  0  0
 18 21  1  0  0  0  0
M  END
>  <Name>
Terodiline

>  <CAS #>
15793-40-5

>  <human Clearance (mL/min/kg)>
1.1

>  <Primary mechanism (metabolic, biliary or renal)>
Metabolic

>  <seqId>
889.0

>  <Code (mechanism and clearance degree index)>
M1

>  < Five M1 and R1 test groups>
M1_5

>  <formamide>
0

>  <prodrug phosphates>
0

>  <VolSurf_V>
763.625

>  <VolSurf_S>
500.106

>  <VolSurf_R>
1.52693

>  <VolSurf_G>
1.37717

>  <VolSurf_IW1>
0.0112734

>  <VolSurf_IW2>
0.126238

>  <VolSurf_IW3>
0.645822

>  <VolSurf_IW4>
0.816856

>  <VolSurf_ID1>
0.0252149

>  <VolSurf_ID2>
0.108073

>  <VolSurf_ID3>
0.237789

>  <VolSurf_ID4>
0.303154

>  <VolSurf_HL1>
0.0827068

>  <VolSurf_HL2>
0.0833333

>  <VolSurf_A>
5.31419

>  <VolSurf_CP>
6.13208

>  <VolSurf_POL>
39.048

>  <VolSurf_MW>
282.443

>  <VolSurf_FLEX>
1.80279

>  <VolSurf_FLEX_RB>
0.180279

>  <VolSurf_NCC>
1.0

>  <VolSurf_LOGP n-Oct>
4.969

>  <VolSurf_LOGP c-Hex>
5.877

>  <VolSurf_PSA>
23.58

>  <VolSurf_HSA>
476.526

>  <VolSurf_PSAR>
0.04715

>  <VolSurf_PHSAR>
0.0494832

>  <VolSurf_LgD5>
1.47464

>  <VolSurf_LgD6>
1.52233

>  <VolSurf_LgD7>
1.83185

>  <VolSurf_LgD7.5>
2.17879

>  <VolSurf_LgD8>
2.61547

>  <VolSurf_LgD9>
3.57097

>  <VolSurf_LgD10>
4.43535

>  <VolSurf_AUS7.4>
0.0

>  <VolSurf_%FU4>
4.13279E-5

>  <VolSurf_%FU5>
4.13277E-4

>  <VolSurf_%FU6>
0.00413262

>  <VolSurf_%FU7>
0.0413108

>  <VolSurf_%FU8>
0.411578

>  <VolSurf_%FU9>
3.96877

>  <VolSurf_%FU10>
29.2426

>  <ID>
424

>  <MOKAID>
425

>  <Clearance Route>
metabolic

>  <PC1>
7.32223

>  <PC2>
-1.8471

$$$$
Tesaglitazar
  -OEChem-08301611272D

 28 29  0     1  0  0  0  0  0999 V2000
    3.4582   -1.0050    0.0000 C   0  0  0  0  0  0  0  0  0  0  0  0
    3.4611   -0.0050    0.0000 C   0  0  0  0  0  0  0  0  0  0  0  0
    2.5966    0.4976    0.0000 O   0  0  0  0  0  0  0  0  0  0  0  0
    2.5995    1.4976    0.0000 C   0  0  1  0  0  0  0  0  0  0  0  0
    1.7350    2.0001    0.0000 C   0  0  0  0  0  0  0  0  0  0  0  0
    0.8675    1.5027    0.0000 C   0  0  0  0  0  0  0  0  0  0  0  0
    0.8675    0.4975    0.0000 C   0  0  0  0  0  0  0  0  0  0  0  0
    0.0000    0.0000    0.0000 C   0  0  0  0  0  0  0  0  0  0  0  0
   -0.8675    0.4975    0.0000 C   0  0  0  0  0  0  0  0  0  0  0  0
   -1.7328   -0.0038    0.0000 O   0  0  0  0  0  0  0  0  0  0  0  0
   -1.7313   -1.0038    0.0000 C   0  0  0  0  0  0  0  0  0  0  0  0
   -2.5966   -1.5050    0.0000 C   0  0  0  0  0  0  0  0  0  0  0  0
   -2.5952   -2.5050    0.0000 C   0  0  0  0  0  0  0  0  0  0  0  0
   -1.7225   -3.0038    0.0000 C   0  0  0  0  0  0  0  0  0  0  0  0
   -1.7210   -4.0038    0.0000 C   0  0  0  0  0  0  0  0  0  0  0  0
   -2.5833   -4.5101    0.0000 C   0  0  0  0  0  0  0  0  0  0  0  0
   -2.5775   -5.5101    0.0000 O   0  0  0  0  0  0  0  0  0  0  0  0
   -1.7086   -6.0050    0.0000 S   0  0  0  0  0  0  0  0  0  0  0  0
   -1.2136   -5.1361    0.0000 O   0  0  0  0  0  0  0  0  0  0  0  0
   -2.2035   -6.8740    0.0000 O   0  0  0  0  0  0  0  0  0  0  0  0
   -0.8396   -6.5000    0.0000 C   0  0  0  0  0  0  0  0  0  0  0  0
   -3.4561   -4.0114    0.0000 C   0  0  0  0  0  0  0  0  0  0  0  0
   -3.4664   -3.0063    0.0000 C   0  0  0  0  0  0  0  0  0  0  0  0
   -0.8675    1.5027    0.0000 C   0  0  0  0  0  0  0  0  0  0  0  0
    0.0000    2.0104    0.0000 C   0  0  0  0  0  0  0  0  0  0  0  0
    3.4670    1.9950    0.0000 C   0  0  0  0  0  0  0  0  0  0  0  0
    4.3316    1.4925    0.0000 O   0  0  0  0  0  0  0  0  0  0  0  0
    3.4700    2.9950    0.0000 O   0  0  0  0  0  0  0  0  0  0  0  0
  1  2  1  0  0  0  0
  2  3  1  0  0  0  0
  3  4  1  0  0  0  0
  4  5  1  1  0  0  0
  5  6  1  0  0  0  0
  6 25  2  0  0  0  0
  6  7  1  0  0  0  0
  7  8  2  0  0  0  0
  8  9  1  0  0  0  0
  9 10  1  0  0  0  0
 10 11  1  0  0  0  0
 11 12  1  0  0  0  0
 12 13  1  0  0  0  0
 13 23  2  0  0  0  0
 13 14  1  0  0  0  0
 14 15  2  0  0  0  0
 15 16  1  0  0  0  0
 16 17  1  0  0  0  0
 17 18  1  0  0  0  0
 18 19  2  0  0  0  0
 18 20  2  0  0  0  0
 18 21  1  0  0  0  0
 16 22  2  0  0  0  0
 22 23  1  0  0  0  0
  9 24  2  0  0  0  0
 24 25  1  0  0  0  0
  4 26  1  0  0  0  0
 26 27  2  0  0  0  0
 26 28  1  0  0  0  0
M  END
>  <Name>
Tesaglitazar

>  <CAS #>
251565-85-2

>  <human Clearance (mL/min/kg)>
0.04

>  <Primary mechanism (metabolic, biliary or renal)>
Metabolic

>  <seqId>
890.0

>  <Code (mechanism and clearance degree index)>
M1

>  < Five M1 and R1 test groups>
M1_3

>  <formamide>
0

>  <prodrug phosphates>
0

>  <VolSurf_V>
899.75

>  <VolSurf_S>
618.842

>  <VolSurf_R>
1.45392

>  <VolSurf_G>
1.60887

>  <VolSurf_IW1>
0.0417982

>  <VolSurf_IW2>
0.120111

>  <VolSurf_IW3>
0.700561

>  <VolSurf_IW4>
1.94929

>  <VolSurf_ID1>
0.0227215

>  <VolSurf_ID2>
0.0775901

>  <VolSurf_ID3>
0.129122

>  <VolSurf_ID4>
0.171454

>  <VolSurf_HL1>
3.12727

>  <VolSurf_HL2>
2.35632

>  <VolSurf_A>
6.43229

>  <VolSurf_CP>
0.581126

>  <VolSurf_POL>
41.075

>  <VolSurf_MW>
407.457

>  <VolSurf_FLEX>
2.85494

>  <VolSurf_FLEX_RB>
0.219611

>  <VolSurf_NCC>
1.0

>  <VolSurf_LOGP n-Oct>
2.69

>  <VolSurf_LOGP c-Hex>
1.264

>  <VolSurf_PSA>
121.472

>  <VolSurf_HSA>
497.37

>  <VolSurf_PSAR>
0.19629

>  <VolSurf_PHSAR>
0.24423

>  <VolSurf_LgD5>
1.24578

>  <VolSurf_LgD6>
0.304754

>  <VolSurf_LgD7>
-0.396815

>  <VolSurf_LgD7.5>
-0.556251

>  <VolSurf_LgD8>
-0.621911

>  <VolSurf_LgD9>
-0.652468

>  <VolSurf_LgD10>
-0.655646

>  <VolSurf_AUS7.4>
0.0

>  <VolSurf_%FU4>
26.9166

>  <VolSurf_%FU5>
3.55217

>  <VolSurf_%FU6>
0.366948

>  <VolSurf_%FU7>
0.0368164

>  <VolSurf_%FU8>
0.00368286

>  <VolSurf_%FU9>
3.68298E-4

>  <VolSurf_%FU10>
3.68299E-5

>  <ID>
425

>  <MOKAID>
426

>  <Clearance Route>
possible billary

>  <PC1>
-0.23478000000000002

>  <PC2>
-1.42375

$$$$
Tezosentan
  -OEChem-08301611272D

 43 47  0     0  0  0  0  0  0999 V2000
   -3.4672   -2.0025    0.0000 C   0  0  0  0  0  0  0  0  0  0  0  0
   -2.6011   -1.5025    0.0000 O   0  0  0  0  0  0  0  0  0  0  0  0
   -1.7351   -2.0025    0.0000 C   0  0  0  0  0  0  0  0  0  0  0  0
   -1.7337   -3.0026    0.0000 C   0  0  0  0  0  0  0  0  0  0  0  0
   -0.8699   -3.5064    0.0000 C   0  0  0  0  0  0  0  0  0  0  0  0
    0.0014   -3.0051    0.0000 C   0  0  0  0  0  0  0  0  0  0  0  0
    0.0088   -2.0000    0.0000 C   0  0  0  0  0  0  0  0  0  0  0  0
   -0.8638   -1.5013    0.0000 C   0  0  0  0  0  0  0  0  0  0  0  0
   -0.8653   -0.5013    0.0000 O   0  0  0  0  0  0  0  0  0  0  0  0
    0.0000    0.0000    0.0000 C   0  0  0  0  0  0  0  0  0  0  0  0
   -0.0000    1.0052    0.0000 C   0  0  0  0  0  0  0  0  0  0  0  0
   -0.8675    1.5026    0.0000 N   0  0  0  0  0  0  0  0  0  0  0  0
   -0.8704    2.5026    0.0000 S   0  0  0  0  0  0  0  0  0  0  0  0
    0.1295    2.5056    0.0000 O   0  0  0  0  0  0  0  0  0  0  0  0
   -1.8704    2.4997    0.0000 O   0  0  0  0  0  0  0  0  0  0  0  0
   -0.8734    3.5026    0.0000 C   0  0  0  0  0  0  0  0  0  0  0  0
   -0.0029    4.0052    0.0000 C   0  0  0  0  0  0  0  0  0  0  0  0
   -0.0058    5.0053    0.0000 C   0  0  0  0  0  0  0  0  0  0  0  0
   -0.8704    5.5078    0.0000 C   0  0  0  0  0  0  0  0  0  0  0  0
   -1.7409    5.0052    0.0000 C   0  0  0  0  0  0  0  0  0  0  0  0
   -1.7468    4.0001    0.0000 N   0  0  0  0  0  0  0  0  0  0  0  0
   -0.8689    6.5078    0.0000 C   0  0  0  0  0  0  0  0  0  0  0  0
   -0.0022    7.0065    0.0000 C   0  0  0  0  0  0  0  0  0  0  0  0
   -1.7342    7.0090    0.0000 C   0  0  0  0  0  0  0  0  0  0  0  0
    0.8675    1.5129    0.0000 N   0  0  0  0  0  0  0  0  0  0  0  0
    1.7350    1.0052    0.0000 C   0  0  0  0  0  0  0  0  0  0  0  0
    1.7350    0.0000    0.0000 N   0  0  0  0  0  0  0  0  0  0  0  0
    0.8675   -0.4975    0.0000 C   0  0  0  0  0  0  0  0  0  0  0  0
    0.8675   -1.4975    0.0000 O   0  0  0  0  0  0  0  0  0  0  0  0
    1.7335   -1.9975    0.0000 C   0  0  0  0  0  0  0  0  0  0  0  0
    1.7335   -2.9975    0.0000 C   0  0  0  0  0  0  0  0  0  0  0  0
    2.5996   -3.4975    0.0000 O   0  0  0  0  0  0  0  0  0  0  0  0
    2.6025    1.5026    0.0000 C   0  0  0  0  0  0  0  0  0  0  0  0
    2.6025    2.5027    0.0000 C   0  0  0  0  0  0  0  0  0  0  0  0
    3.4746    3.0027    0.0000 C   0  0  0  0  0  0  0  0  0  0  0  0
    4.3465    2.5027    0.0000 N   0  0  0  0  0  0  0  0  0  0  0  0
    4.3376    1.4976    0.0000 C   0  0  0  0  0  0  0  0  0  0  0  0
    3.4656    0.9976    0.0000 C   0  0  0  0  0  0  0  0  0  0  0  0
    5.2007    0.9925    0.0000 C   0  0  0  0  0  0  0  0  0  0  0  0
    5.2963   -0.0029    0.0000 N   0  0  0  0  0  0  0  0  0  0  0  0
    6.2746   -0.2173    0.0000 N   0  0  0  0  0  0  0  0  0  0  0  0
    6.7829    0.6457    0.0000 N   0  0  0  0  0  0  0  0  0  0  0  0
    6.1157    1.3968    0.0000 N   0  0  0  0  0  0  0  0  0  0  0  0
  1  2  1  0  0  0  0
  2  3  1  0  0  0  0
  3  8  2  0  0  0  0
  3  4  1  0  0  0  0
  4  5  2  0  0  0  0
  5  6  1  0  0  0  0
  6  7  2  0  0  0  0
  7  8  1  0  0  0  0
  8  9  1  0  0  0  0
  9 10  1  0  0  0  0
 10 28  2  0  0  0  0
 10 11  1  0  0  0  0
 11 12  1  0  0  0  0
 12 13  1  0  0  0  0
 13 14  2  0  0  0  0
 13 15  2  0  0  0  0
 13 16  1  0  0  0  0
 16 21  2  0  0  0  0
 16 17  1  0  0  0  0
 17 18  2  0  0  0  0
 18 19  1  0  0  0  0
 19 20  2  0  0  0  0
 20 21  1  0  0  0  0
 19 22  1  0  0  0  0
 22 23  1  0  0  0  0
 22 24  1  0  0  0  0
 11 25  2  0  0  0  0
 25 26  1  0  0  0  0
 26 27  2  0  0  0  0
 27 28  1  0  0  0  0
 28 29  1  0  0  0  0
 29 30  1  0  0  0  0
 30 31  1  0  0  0  0
 31 32  1  0  0  0  0
 26 33  1  0  0  0  0
 33 38  2  0  0  0  0
 33 34  1  0  0  0  0
 34 35  2  0  0  0  0
 35 36  1  0  0  0  0
 36 37  2  0  0  0  0
 37 38  1  0  0  0  0
 37 39  1  0  0  0  0
 39 43  1  0  0  0  0
 39 40  2  0  0  0  0
 40 41  1  0  0  0  0
 41 42  2  0  0  0  0
 42 43  1  0  0  0  0
M  END
>  <Name>
Tezosentan

>  <CAS #>
180384-57-0

>  <human Clearance (mL/min/kg)>
8.1

>  <Primary mechanism (metabolic, biliary or renal)>
biliary

>  <seqId>
893.0

>  <Code (mechanism and clearance degree index)>
B1

>  < Five M1 and R1 test groups>
35

>  <formamide>
0

>  <prodrug phosphates>
0

>  <VolSurf_V>
1168.5

>  <VolSurf_S>
743.971

>  <VolSurf_R>
1.57062

>  <VolSurf_G>
1.63297

>  <VolSurf_IW1>
0.0572142

>  <VolSurf_IW2>
0.123203

>  <VolSurf_IW3>
0.257116

>  <VolSurf_IW4>
0.427992

>  <VolSurf_ID1>
0.0305807

>  <VolSurf_ID2>
0.0649907

>  <VolSurf_ID3>
0.0840508

>  <VolSurf_ID4>
0.0826759

>  <VolSurf_HL1>
6.00281

>  <VolSurf_HL2>
4.99048

>  <VolSurf_A>
4.23259

>  <VolSurf_CP>
0.378969

>  <VolSurf_POL>
60.573

>  <VolSurf_MW>
603.609

>  <VolSurf_FLEX>
3.08573

>  <VolSurf_FLEX_RB>
0.192858

>  <VolSurf_NCC>
2.0

>  <VolSurf_LOGP n-Oct>
3.506

>  <VolSurf_LOGP c-Hex>
-2.774

>  <VolSurf_PSA>
171.72

>  <VolSurf_HSA>
572.251

>  <VolSurf_PSAR>
0.230815

>  <VolSurf_PHSAR>
0.300078

>  <VolSurf_LgD5>
2.46906

>  <VolSurf_LgD6>
0.71547

>  <VolSurf_LgD7>
-1.10212

>  <VolSurf_LgD7.5>
-1.59148

>  <VolSurf_LgD8>
-1.71554

>  <VolSurf_LgD9>
-1.74225

>  <VolSurf_LgD10>
-1.74388

>  <VolSurf_AUS7.4>
0.0

>  <VolSurf_%FU4>
47.961

>  <VolSurf_%FU5>
9.17254

>  <VolSurf_%FU6>
0.159453

>  <VolSurf_%FU7>
0.00169386

>  <VolSurf_%FU8>
1.70421E-5

>  <VolSurf_%FU9>
1.70523E-7

>  <VolSurf_%FU10>
1.70516E-9

>  <ID>
426

>  <MOKAID>
427

>  <Clearance Route>
possible billary

>  <PC1>
-1.9605299999999999

>  <PC2>
-3.29045

$$$$
Thalidomide
  -OEChem-08301611272D

 19 21  0     1  0  0  0  0  0999 V2000
    7.2909   -0.4991    0.0000 O   0  0  0  0  0  0  0  0  0  0  0  0
    6.2910   -0.5035    0.0000 C   0  0  0  0  0  0  0  0  0  0  0  0
    5.7870    0.3662    0.0000 C   0  0  0  0  0  0  0  0  0  0  0  0
    4.7870    0.3618    0.0000 C   0  0  0  0  0  0  0  0  0  0  0  0
    4.2858   -0.5035    0.0000 C   0  0  3  0  0  0  0  0  0  0  0  0
    3.2858   -0.5036    0.0000 N   0  0  0  0  0  0  0  0  0  0  0  0
    2.6938    0.3110    0.0000 C   0  0  0  0  0  0  0  0  0  0  0  0
    3.0028    1.2620    0.0000 O   0  0  0  0  0  0  0  0  0  0  0  0
    1.7360   -0.0000    0.0000 C   0  0  0  0  0  0  0  0  0  0  0  0
    0.8680    0.5079    0.0000 C   0  0  0  0  0  0  0  0  0  0  0  0
    0.0000    0.0000    0.0000 C   0  0  0  0  0  0  0  0  0  0  0  0
   -0.0000   -1.0058    0.0000 C   0  0  0  0  0  0  0  0  0  0  0  0
    0.8680   -1.5037    0.0000 C   0  0  0  0  0  0  0  0  0  0  0  0
    1.7360   -1.0071    0.0000 C   0  0  0  0  0  0  0  0  0  0  0  0
    2.6938   -1.3184    0.0000 C   0  0  0  0  0  0  0  0  0  0  0  0
    3.0028   -2.2695    0.0000 O   0  0  0  0  0  0  0  0  0  0  0  0
    4.7897   -1.3733    0.0000 C   0  0  0  0  0  0  0  0  0  0  0  0
    4.2885   -2.2386    0.0000 O   0  0  0  0  0  0  0  0  0  0  0  0
    5.7948   -1.3777    0.0000 N   0  0  0  0  0  0  0  0  0  0  0  0
  1  2  2  0  0  0  0
  2 19  1  0  0  0  0
  2  3  1  0  0  0  0
  3  4  1  0  0  0  0
  4  5  1  0  0  0  0
  5  6  1  0  0  0  0
  6 15  1  0  0  0  0
  6  7  1  0  0  0  0
  7  8  2  0  0  0  0
  7  9  1  0  0  0  0
  9 14  2  0  0  0  0
  9 10  1  0  0  0  0
 10 11  2  0  0  0  0
 11 12  1  0  0  0  0
 12 13  2  0  0  0  0
 13 14  1  0  0  0  0
 14 15  1  0  0  0  0
 15 16  2  0  0  0  0
  5 17  1  0  0  0  0
 17 18  2  0  0  0  0
 17 19  1  0  0  0  0
M  END
>  <Name>
Thalidomide

>  <CAS #>
50-35-1

>  <human Clearance (mL/min/kg)>
3.4

>  <Primary mechanism (metabolic, biliary or renal)>
Metabolic

>  <seqId>
895.0

>  <Code (mechanism and clearance degree index)>
M1

>  < Five M1 and R1 test groups>
M1_4

>  <formamide>
0

>  <prodrug phosphates>
0

>  <VolSurf_V>
532.75

>  <VolSurf_S>
382.697

>  <VolSurf_R>
1.39209

>  <VolSurf_G>
1.3214

>  <VolSurf_IW1>
0.162539

>  <VolSurf_IW2>
0.330644

>  <VolSurf_IW3>
0.61094

>  <VolSurf_IW4>
0.7658

>  <VolSurf_ID1>
0.122805

>  <VolSurf_ID2>
0.213649

>  <VolSurf_ID3>
0.285417

>  <VolSurf_ID4>
0.325616

>  <VolSurf_HL1>
7.6236

>  <VolSurf_HL2>
6.74107

>  <VolSurf_A>
5.6171

>  <VolSurf_CP>
0.180789

>  <VolSurf_POL>
23.588

>  <VolSurf_MW>
257.221

>  <VolSurf_FLEX>
0.278922

>  <VolSurf_FLEX_RB>
0.278922

>  <VolSurf_NCC>
1.0

>  <VolSurf_LOGP n-Oct>
0.866

>  <VolSurf_LOGP c-Hex>
-0.714

>  <VolSurf_PSA>
71.29

>  <VolSurf_HSA>
311.407

>  <VolSurf_PSAR>
0.186283

>  <VolSurf_PHSAR>
0.228929

>  <VolSurf_LgD5>
0.864316

>  <VolSurf_LgD6>
0.849444

>  <VolSurf_LgD7>
0.723447

>  <VolSurf_LgD7.5>
0.518028

>  <VolSurf_LgD8>
0.177496

>  <VolSurf_LgD9>
-0.729334

>  <VolSurf_LgD10>
-1.67438

>  <VolSurf_AUS7.4>
1.7101

>  <VolSurf_%FU4>
99.9611

>  <VolSurf_%FU5>
99.6128

>  <VolSurf_%FU6>
96.2585

>  <VolSurf_%FU7>
72.0101

>  <VolSurf_%FU8>
20.4627

>  <VolSurf_%FU9>
2.50819

>  <VolSurf_%FU10>
0.256611

>  <ID>
427

>  <MOKAID>
428

>  <Clearance Route>
uncertain

>  <PC1>
1.02128

>  <PC2>
3.34911

$$$$
Theophylline
  -OEChem-08301611272D

 13 14  0     0  0  0  0  0  0999 V2000
   -1.7355   -0.0104    0.0000 C   0  0  0  0  0  0  0  0  0  0  0  0
   -0.8680   -0.5079    0.0000 N   0  0  0  0  0  0  0  0  0  0  0  0
   -0.8680   -1.5137    0.0000 C   0  0  0  0  0  0  0  0  0  0  0  0
   -1.7333   -2.0149    0.0000 O   0  0  0  0  0  0  0  0  0  0  0  0
   -0.0000   -2.0116    0.0000 N   0  0  0  0  0  0  0  0  0  0  0  0
   -0.0006   -3.0116    0.0000 C   0  0  0  0  0  0  0  0  0  0  0  0
    0.8680   -1.5150    0.0000 C   0  0  0  0  0  0  0  0  0  0  0  0
    1.8258   -1.8263    0.0000 N   0  0  0  0  0  0  0  0  0  0  0  0
    2.4178   -1.0115    0.0000 C   0  0  0  0  0  0  0  0  0  0  0  0
    1.8258   -0.1969    0.0000 N   0  0  0  0  0  0  0  0  0  0  0  0
    0.8680   -0.5079    0.0000 C   0  0  0  0  0  0  0  0  0  0  0  0
    0.0000    0.0000    0.0000 C   0  0  0  0  0  0  0  0  0  0  0  0
    0.0000    1.0000    0.0000 O   0  0  0  0  0  0  0  0  0  0  0  0
  1  2  1  0  0  0  0
  2 12  1  0  0  0  0
  2  3  1  0  0  0  0
  3  4  2  0  0  0  0
  3  5  1  0  0  0  0
  5  6  1  0  0  0  0
  5  7  1  0  0  0  0
  7 11  2  0  0  0  0
  7  8  1  0  0  0  0
  8  9  1  0  0  0  0
  9 10  2  0  0  0  0
 10 11  1  0  0  0  0
 11 12  1  0  0  0  0
 12 13  2  0  0  0  0
M  END
>  <Name>
Theophylline

>  <CAS #>
58-55-9

>  <human Clearance (mL/min/kg)>
0.86

>  <Primary mechanism (metabolic, biliary or renal)>
Metabolic

>  <seqId>
896.0

>  <Code (mechanism and clearance degree index)>
M1

>  < Five M1 and R1 test groups>
M1_5

>  <formamide>
0

>  <prodrug phosphates>
0

>  <VolSurf_V>
379.375

>  <VolSurf_S>
283.74

>  <VolSurf_R>
1.33705

>  <VolSurf_G>
1.18464

>  <VolSurf_IW1>
0.108327

>  <VolSurf_IW2>
0.242384

>  <VolSurf_IW3>
0.630717

>  <VolSurf_IW4>
1.21482

>  <VolSurf_ID1>
0.057443

>  <VolSurf_ID2>
0.0936634

>  <VolSurf_ID3>
0.0997195

>  <VolSurf_ID4>
0.141983

>  <VolSurf_HL1>
2.13988

>  <VolSurf_HL2>
1.28364

>  <VolSurf_A>
2.17716

>  <VolSurf_CP>
1.96451

>  <VolSurf_POL>
16.834

>  <VolSurf_MW>
180.164

>  <VolSurf_FLEX>
9.99524E-7

>  <VolSurf_FLEX_RB>
4.99762E-7

>  <VolSurf_NCC>
0.0

>  <VolSurf_LOGP n-Oct>
-0.238

>  <VolSurf_LOGP c-Hex>
-2.328

>  <VolSurf_PSA>
64.82

>  <VolSurf_HSA>
218.92

>  <VolSurf_PSAR>
0.228448

>  <VolSurf_PHSAR>
0.29609

>  <VolSurf_LgD5>
-0.238596

>  <VolSurf_LgD6>
-0.241426

>  <VolSurf_LgD7>
-0.270863

>  <VolSurf_LgD7.5>
-0.334405

>  <VolSurf_LgD8>
-0.489842

>  <VolSurf_LgD9>
-1.18449

>  <VolSurf_LgD10>
-2.1284

>  <VolSurf_AUS7.4>
1.92535

>  <VolSurf_%FU4>
99.4094

>  <VolSurf_%FU5>
99.8629

>  <VolSurf_%FU6>
99.2141

>  <VolSurf_%FU7>
92.7098

>  <VolSurf_%FU8>
55.9822

>  <VolSurf_%FU9>
11.2831

>  <VolSurf_%FU10>
1.25584

>  <ID>
428

>  <MOKAID>
429

>  <Clearance Route>
uncertain

>  <PC1>
0.8832450000000001

>  <PC2>
3.89805

$$$$
Tiagabine
  -OEChem-08301611272D

 25 27  0     1  0  0  0  0  0999 V2000
   -0.0287    6.2907    0.0000 C   0  0  0  0  0  0  0  0  0  0  0  0
    0.9223    6.5999    0.0000 C   0  0  0  0  0  0  0  0  0  0  0  0
    1.2304    7.5529    0.0000 C   0  0  0  0  0  0  0  0  0  0  0  0
    2.2304    7.5516    0.0000 C   0  0  0  0  0  0  0  0  0  0  0  0
    2.5443    6.6017    0.0000 S   0  0  0  0  0  0  0  0  0  0  0  0
    1.7321    6.0104    0.0000 C   0  0  0  0  0  0  0  0  0  0  0  0
    1.7321    5.0104    0.0000 C   0  0  0  0  0  0  0  0  0  0  0  0
    0.8660    4.5104    0.0000 C   0  0  0  0  0  0  0  0  0  0  0  0
    0.8660    3.5104    0.0000 C   0  0  0  0  0  0  0  0  0  0  0  0
   -0.0000    3.0104    0.0000 C   0  0  0  0  0  0  0  0  0  0  0  0
   -0.0000    2.0104    0.0000 N   0  0  3  0  0  0  0  0  0  0  0  0
   -0.8675    1.5027    0.0000 C   0  0  0  0  0  0  0  0  0  0  0  0
   -0.8675    0.4975    0.0000 C   0  0  0  0  0  0  0  0  0  0  0  0
    0.0000    0.0000    0.0000 C   0  0  0  0  0  0  0  0  0  0  0  0
    0.8675    0.4975    0.0000 C   0  0  2  0  0  0  0  0  0  0  0  0
    0.8675    1.5027    0.0000 C   0  0  0  0  0  0  0  0  0  0  0  0
    1.7328   -0.0038    0.0000 C   0  0  0  0  0  0  0  0  0  0  0  0
    1.7313   -1.0038    0.0000 O   0  0  0  0  0  0  0  0  0  0  0  0
    2.5995    0.4950    0.0000 O   0  0  0  0  0  0  0  0  0  0  0  0
    2.5981    4.5104    0.0000 C   0  0  0  0  0  0  0  0  0  0  0  0
    2.7040    3.5114    0.0000 S   0  0  0  0  0  0  0  0  0  0  0  0
    3.6836    3.3082    0.0000 C   0  0  0  0  0  0  0  0  0  0  0  0
    4.1847    4.1736    0.0000 C   0  0  0  0  0  0  0  0  0  0  0  0
    3.5135    4.9169    0.0000 C   0  0  0  0  0  0  0  0  0  0  0  0
    3.7212    5.8951    0.0000 C   0  0  0  0  0  0  0  0  0  0  0  0
  1  2  1  0  0  0  0
  2  6  2  0  0  0  0
  2  3  1  0  0  0  0
  3  4  2  0  0  0  0
  4  5  1  0  0  0  0
  5  6  1  0  0  0  0
  6  7  1  0  0  0  0
  7  8  2  0  0  0  0
  8  9  1  0  0  0  0
  9 10  1  0  0  0  0
 10 11  1  0  0  0  0
 11 16  1  0  0  0  0
 11 12  1  0  0  0  0
 12 13  1  0  0  0  0
 13 14  1  0  0  0  0
 14 15  1  0  0  0  0
 15 16  1  0  0  0  0
 15 17  1  6  0  0  0
 17 18  2  0  0  0  0
 17 19  1  0  0  0  0
  7 20  1  0  0  0  0
 20 24  2  0  0  0  0
 20 21  1  0  0  0  0
 21 22  1  0  0  0  0
 22 23  2  0  0  0  0
 23 24  1  0  0  0  0
 24 25  1  0  0  0  0
M  END
>  <Name>
Tiagabine

>  <CAS #>
115103-54-3

>  <human Clearance (mL/min/kg)>
1.6

>  <Primary mechanism (metabolic, biliary or renal)>
Metabolic

>  <seqId>
900.0

>  <Code (mechanism and clearance degree index)>
M1

>  < Five M1 and R1 test groups>
M1_4

>  <formamide>
0

>  <prodrug phosphates>
0

>  <VolSurf_V>
824.0

>  <VolSurf_S>
549.4

>  <VolSurf_R>
1.49982

>  <VolSurf_G>
1.46953

>  <VolSurf_IW1>
0.0826602

>  <VolSurf_IW2>
0.311136

>  <VolSurf_IW3>
0.943833

>  <VolSurf_IW4>
1.24052

>  <VolSurf_ID1>
0.045578

>  <VolSurf_ID2>
0.12814

>  <VolSurf_ID3>
0.231206

>  <VolSurf_ID4>
0.324693

>  <VolSurf_HL1>
1.91988

>  <VolSurf_HL2>
2.44516

>  <VolSurf_A>
8.80602

>  <VolSurf_CP>
0.523553

>  <VolSurf_POL>
42.982

>  <VolSurf_MW>
375.548

>  <VolSurf_FLEX>
2.32271

>  <VolSurf_FLEX_RB>
0.290339

>  <VolSurf_NCC>
2.0

>  <VolSurf_LOGP n-Oct>
5.283

>  <VolSurf_LOGP c-Hex>
1.471

>  <VolSurf_PSA>
81.07

>  <VolSurf_HSA>
468.33

>  <VolSurf_PSAR>
0.147561

>  <VolSurf_PHSAR>
0.173104

>  <VolSurf_LgD5>
2.43669

>  <VolSurf_LgD6>
2.44643

>  <VolSurf_LgD7>
2.44371

>  <VolSurf_LgD7.5>
2.43501

>  <VolSurf_LgD8>
2.40936

>  <VolSurf_LgD9>
2.22337

>  <VolSurf_LgD10>
1.99742

>  <VolSurf_AUS7.4>
0.0

>  <VolSurf_%FU4>
0.0

>  <VolSurf_%FU5>
0.0

>  <VolSurf_%FU6>
0.0

>  <VolSurf_%FU7>
0.0

>  <VolSurf_%FU8>
0.0

>  <VolSurf_%FU9>
0.0

>  <VolSurf_%FU10>
0.0

>  <ID>
429

>  <MOKAID>
430

>  <Clearance Route>
metabolic

>  <PC1>
1.91251

>  <PC2>
-0.48800600000000005

$$$$
Tiapride
  -OEChem-08301611272D

 22 22  0     0  0  0  0  0  0999 V2000
   -0.8675    1.5027    0.0000 C   0  0  0  0  0  0  0  0  0  0  0  0
   -0.8675    0.4975    0.0000 C   0  0  0  0  0  0  0  0  0  0  0  0
    0.0000    0.0000    0.0000 C   0  0  0  0  0  0  0  0  0  0  0  0
    0.8675    0.4975    0.0000 C   0  0  0  0  0  0  0  0  0  0  0  0
    0.8675    1.5027    0.0000 C   0  0  0  0  0  0  0  0  0  0  0  0
   -0.0000    2.0104    0.0000 C   0  0  0  0  0  0  0  0  0  0  0  0
    1.7350    2.0001    0.0000 S   0  0  0  0  0  0  0  0  0  0  0  0
    2.6025    2.4976    0.0000 C   0  0  0  0  0  0  0  0  0  0  0  0
    1.2376    2.8676    0.0000 O   0  0  0  0  0  0  0  0  0  0  0  0
    2.2324    1.1326    0.0000 O   0  0  0  0  0  0  0  0  0  0  0  0
   -1.7328   -0.0038    0.0000 O   0  0  0  0  0  0  0  0  0  0  0  0
   -1.7313   -1.0038    0.0000 C   0  0  0  0  0  0  0  0  0  0  0  0
   -1.7350    2.0001    0.0000 C   0  0  0  0  0  0  0  0  0  0  0  0
   -2.5995    1.4976    0.0000 N   0  0  0  0  0  0  0  0  0  0  0  0
   -3.4670    1.9950    0.0000 C   0  0  0  0  0  0  0  0  0  0  0  0
   -4.3316    1.4925    0.0000 C   0  0  0  0  0  0  0  0  0  0  0  0
   -5.1991    1.9899    0.0000 N   0  0  0  0  0  0  0  0  0  0  0  0
   -6.0636    1.4874    0.0000 C   0  0  0  0  0  0  0  0  0  0  0  0
   -6.0607    0.4874    0.0000 C   0  0  0  0  0  0  0  0  0  0  0  0
   -5.2020    2.9899    0.0000 C   0  0  0  0  0  0  0  0  0  0  0  0
   -6.0695    3.4874    0.0000 C   0  0  0  0  0  0  0  0  0  0  0  0
   -1.7379    3.0001    0.0000 O   0  0  0  0  0  0  0  0  0  0  0  0
  1  6  2  0  0  0  0
  1  2  1  0  0  0  0
  2  3  2  0  0  0  0
  3  4  1  0  0  0  0
  4  5  2  0  0  0  0
  5  6  1  0  0  0  0
  5  7  1  0  0  0  0
  7  8  1  0  0  0  0
  7  9  2  0  0  0  0
  7 10  2  0  0  0  0
  2 11  1  0  0  0  0
 11 12  1  0  0  0  0
  1 13  1  0  0  0  0
 13 14  1  0  0  0  0
 14 15  1  0  0  0  0
 15 16  1  0  0  0  0
 16 17  1  0  0  0  0
 17 18  1  0  0  0  0
 18 19  1  0  0  0  0
 17 20  1  0  0  0  0
 20 21  1  0  0  0  0
 13 22  2  0  0  0  0
M  END
>  <Name>
Tiapride

>  <CAS #>
51012-32-9

>  <human Clearance (mL/min/kg)>
4.7

>  <Primary mechanism (metabolic, biliary or renal)>
renal

>  <seqId>
902.0

>  <Code (mechanism and clearance degree index)>
R1

>  < Five M1 and R1 test groups>
R1_3

>  <formamide>
0

>  <prodrug phosphates>
0

>  <VolSurf_V>
773.375

>  <VolSurf_S>
547.758

>  <VolSurf_R>
1.41189

>  <VolSurf_G>
1.55871

>  <VolSurf_IW1>
0.0962765

>  <VolSurf_IW2>
0.244895

>  <VolSurf_IW3>
0.465869

>  <VolSurf_IW4>
0.900765

>  <VolSurf_ID1>
0.0442854

>  <VolSurf_ID2>
0.0324096

>  <VolSurf_ID3>
0.0671712

>  <VolSurf_ID4>
0.157857

>  <VolSurf_HL1>
4.00599

>  <VolSurf_HL2>
1.87273

>  <VolSurf_A>
3.10338

>  <VolSurf_CP>
1.20217

>  <VolSurf_POL>
36.406

>  <VolSurf_MW>
329.435

>  <VolSurf_FLEX>
1.99881

>  <VolSurf_FLEX_RB>
0.166568

>  <VolSurf_NCC>
1.0

>  <VolSurf_LOGP n-Oct>
0.696

>  <VolSurf_LOGP c-Hex>
-1.969

>  <VolSurf_PSA>
94.1025

>  <VolSurf_HSA>
453.655

>  <VolSurf_PSAR>
0.171796

>  <VolSurf_PHSAR>
0.207432

>  <VolSurf_LgD5>
-3.17268

>  <VolSurf_LgD6>
-2.2274

>  <VolSurf_LgD7>
-1.23779

>  <VolSurf_LgD7.5>
-0.749021

>  <VolSurf_LgD8>
-0.281608

>  <VolSurf_LgD9>
0.42882

>  <VolSurf_LgD10>
0.659869

>  <VolSurf_AUS7.4>
0.552754

>  <VolSurf_%FU4>
0.00117661

>  <VolSurf_%FU5>
0.0117649

>  <VolSurf_%FU6>
0.117524

>  <VolSurf_%FU7>
1.16294

>  <VolSurf_%FU8>
10.5275

>  <VolSurf_%FU9>
54.0522

>  <VolSurf_%FU10>
92.0171

>  <ID>
430

>  <MOKAID>
431

>  <Clearance Route>
uncertain

>  <PC1>
-0.308791

>  <PC2>
0.0942916

$$$$
Tiazofurin
  -OEChem-08301611272D

 17 18  0     1  0  0  0  0  0999 V2000
   -1.5832   -0.7024    0.0000 N   0  0  0  0  0  0  0  0  0  0  0  0
   -0.5889   -0.8082    0.0000 C   0  0  0  0  0  0  0  0  0  0  0  0
   -0.1833   -1.7223    0.0000 O   0  0  0  0  0  0  0  0  0  0  0  0
    0.0000    0.0000    0.0000 C   0  0  0  0  0  0  0  0  0  0  0  0
   -0.3065    0.9519    0.0000 C   0  0  0  0  0  0  0  0  0  0  0  0
    0.5007    1.5426    0.0000 S   0  0  0  0  0  0  0  0  0  0  0  0
    1.3131    0.9519    0.0000 C   0  0  0  0  0  0  0  0  0  0  0  0
    1.0014    0.0000    0.0000 N   0  0  0  0  0  0  0  0  0  0  0  0
    2.2646    1.2597    0.0000 C   0  0  2  0  0  0  0  0  0  0  0  0
    3.0771    0.6688    0.0000 O   0  0  0  0  0  0  0  0  0  0  0  0
    3.8844    1.2598    0.0000 C   0  0  2  0  0  0  0  0  0  0  0  0
    4.8356    0.9513    0.0000 C   0  0  0  0  0  0  0  0  0  0  0  0
    5.5784    1.6208    0.0000 O   0  0  0  0  0  0  0  0  0  0  0  0
    3.5778    2.2117    0.0000 C   0  0  1  0  0  0  0  0  0  0  0  0
    4.1666    3.0200    0.0000 O   0  0  0  0  0  0  0  0  0  0  0  0
    2.5763    2.2116    0.0000 C   0  0  1  0  0  0  0  0  0  0  0  0
    1.9894    3.0212    0.0000 O   0  0  0  0  0  0  0  0  0  0  0  0
  1  2  1  0  0  0  0
  2  3  2  0  0  0  0
  2  4  1  0  0  0  0
  4  8  1  0  0  0  0
  4  5  2  0  0  0  0
  5  6  1  0  0  0  0
  6  7  1  0  0  0  0
  7  8  2  0  0  0  0
  9  7  1  1  0  0  0
  9 16  1  0  0  0  0
  9 10  1  0  0  0  0
 10 11  1  0  0  0  0
 11 12  1  1  0  0  0
 12 13  1  0  0  0  0
 11 14  1  0  0  0  0
 14 15  1  6  0  0  0
 14 16  1  0  0  0  0
 16 17  1  6  0  0  0
M  END
>  <Name>
Tiazofurin

>  <CAS #>
60084-10-8

>  <human Clearance (mL/min/kg)>
2.4

>  <Primary mechanism (metabolic, biliary or renal)>
Renal

>  <seqId>
904.0

>  <Code (mechanism and clearance degree index)>
R1

>  < Five M1 and R1 test groups>
R1_2

>  <formamide>
0

>  <prodrug phosphates>
0

>  <VolSurf_V>
489.75

>  <VolSurf_S>
360.626

>  <VolSurf_R>
1.35806

>  <VolSurf_G>
1.31488

>  <VolSurf_IW1>
0.0973774

>  <VolSurf_IW2>
0.17142

>  <VolSurf_IW3>
0.428525

>  <VolSurf_IW4>
0.696428

>  <VolSurf_ID1>
0.160111

>  <VolSurf_ID2>
0.257761

>  <VolSurf_ID3>
0.328847

>  <VolSurf_ID4>
0.440788

>  <VolSurf_HL1>
15.0367

>  <VolSurf_HL2>
13.1618

>  <VolSurf_A>
4.95842

>  <VolSurf_CP>
0.0820132

>  <VolSurf_POL>
23.003

>  <VolSurf_MW>
260.267

>  <VolSurf_FLEX>
0.692323

>  <VolSurf_FLEX_RB>
0.0989033

>  <VolSurf_NCC>
0.0

>  <VolSurf_LOGP n-Oct>
-1.849

>  <VolSurf_LOGP c-Hex>
-7.329

>  <VolSurf_PSA>
140.71

>  <VolSurf_HSA>
219.916

>  <VolSurf_PSAR>
0.390183

>  <VolSurf_PHSAR>
0.639835

>  <VolSurf_LgD5>
-1.849

>  <VolSurf_LgD6>
-1.849

>  <VolSurf_LgD7>
-1.849

>  <VolSurf_LgD7.5>
-1.84901

>  <VolSurf_LgD8>
-1.84904

>  <VolSurf_LgD9>
-1.84941

>  <VolSurf_LgD10>
-1.8531

>  <VolSurf_AUS7.4>
2.0

>  <VolSurf_%FU4>
99.9979

>  <VolSurf_%FU5>
99.9998

>  <VolSurf_%FU6>
99.9999

>  <VolSurf_%FU7>
99.999

>  <VolSurf_%FU8>
99.9905

>  <VolSurf_%FU9>
99.9052

>  <VolSurf_%FU10>
99.0592

>  <ID>
431

>  <MOKAID>
432

>  <Clearance Route>
uncertain

>  <PC1>
-1.0084

>  <PC2>
4.41697

$$$$
Ticarcillin
  -OEChem-08301611272D

 26 28  0     1  0  0  0  0  0999 V2000
    3.2824    0.1689    0.0000 C   0  0  0  0  0  0  0  0  0  0  0  0
    2.5392   -0.5002    0.0000 C   0  0  0  0  0  0  0  0  0  0  0  0
    3.2822   -1.1694    0.0000 C   0  0  0  0  0  0  0  0  0  0  0  0
    1.9514    0.3089    0.0000 S   0  0  0  0  0  0  0  0  0  0  0  0
    1.0001    0.0000    0.0000 C   0  0  2  0  0  0  0  0  0  0  0  0
    0.0000    0.0000    0.0000 C   0  0  2  0  0  0  0  0  0  0  0  0
   -0.7071    0.7071    0.0000 N   0  0  0  0  0  0  0  0  0  0  0  0
   -1.6730    0.4483    0.0000 C   0  0  0  0  0  0  0  0  0  0  0  0
   -1.9319   -0.5176    0.0000 O   0  0  0  0  0  0  0  0  0  0  0  0
   -2.3801    1.1554    0.0000 C   0  0  2  0  0  0  0  0  0  0  0  0
   -3.3461    0.8966    0.0000 C   0  0  0  0  0  0  0  0  0  0  0  0
   -4.0532    1.6037    0.0000 O   0  0  0  0  0  0  0  0  0  0  0  0
   -3.6049   -0.0693    0.0000 O   0  0  0  0  0  0  0  0  0  0  0  0
   -2.1213    2.1213    0.0000 C   0  0  0  0  0  0  0  0  0  0  0  0
   -2.7525    2.8989    0.0000 C   0  0  0  0  0  0  0  0  0  0  0  0
   -2.2066    3.7368    0.0000 C   0  0  0  0  0  0  0  0  0  0  0  0
   -1.2391    3.4824    0.0000 S   0  0  0  0  0  0  0  0  0  0  0  0
   -1.1858    2.4792    0.0000 C   0  0  0  0  0  0  0  0  0  0  0  0
   -0.0000   -1.0001    0.0000 C   0  0  0  0  0  0  0  0  0  0  0  0
   -0.7071   -1.7072    0.0000 O   0  0  0  0  0  0  0  0  0  0  0  0
    1.0000   -1.0001    0.0000 N   0  0  0  0  0  0  0  0  0  0  0  0
    1.9511   -1.3093    0.0000 C   0  0  1  0  0  0  0  0  0  0  0  0
    2.2599   -2.2604    0.0000 C   0  0  0  0  0  0  0  0  0  0  0  0
    1.5907   -3.0034    0.0000 O   0  0  0  0  0  0  0  0  0  0  0  0
    3.2381   -2.4685    0.0000 O   0  0  0  0  0  0  0  0  0  0  0  0
    0.8438    0.9877    0.0000 H   0  0  0  0  0  0  0  0  0  0  0  0
  1  2  1  0  0  0  0
  2 22  1  0  0  0  0
  2  3  1  0  0  0  0
  2  4  1  0  0  0  0
  4  5  1  0  0  0  0
  5 21  1  0  0  0  0
  5  6  1  0  0  0  0
  6  7  1  1  0  0  0
  7  8  1  0  0  0  0
  8  9  2  0  0  0  0
 10  8  1  6  0  0  0
 10 11  1  0  0  0  0
 11 12  2  0  0  0  0
 11 13  1  0  0  0  0
 10 14  1  0  0  0  0
 14 18  2  0  0  0  0
 14 15  1  0  0  0  0
 15 16  2  0  0  0  0
 16 17  1  0  0  0  0
 17 18  1  0  0  0  0
  6 19  1  0  0  0  0
 19 20  2  0  0  0  0
 19 21  1  0  0  0  0
 21 22  1  0  0  0  0
 22 23  1  6  0  0  0
 23 24  2  0  0  0  0
 23 25  1  0  0  0  0
  5 26  1  6  0  0  0
M  END
>  <Name>
Ticarcillin

>  <CAS #>
34787-01-4

>  <human Clearance (mL/min/kg)>
1.8

>  <Primary mechanism (metabolic, biliary or renal)>
renal

>  <seqId>
905.0

>  <Code (mechanism and clearance degree index)>
R1

>  < Five M1 and R1 test groups>
R1_5

>  <formamide>
0

>  <prodrug phosphates>
0

>  <VolSurf_V>
729.375

>  <VolSurf_S>
498.586

>  <VolSurf_R>
1.46289

>  <VolSurf_G>
1.43527

>  <VolSurf_IW1>
0.117989

>  <VolSurf_IW2>
0.229031

>  <VolSurf_IW3>
0.533371

>  <VolSurf_IW4>
0.739415

>  <VolSurf_ID1>
0.0482368

>  <VolSurf_ID2>
0.10621

>  <VolSurf_ID3>
0.0

>  <VolSurf_ID4>
0.0

>  <VolSurf_HL1>
59.5

>  <VolSurf_HL2>
286.5

>  <VolSurf_A>
5.97308

>  <VolSurf_CP>
0.0245779

>  <VolSurf_POL>
33.769

>  <VolSurf_MW>
382.411

>  <VolSurf_FLEX>
1.38379

>  <VolSurf_FLEX_RB>
0.197685

>  <VolSurf_NCC>
2.0

>  <VolSurf_LOGP n-Oct>
0.88

>  <VolSurf_LOGP c-Hex>
-4.43

>  <VolSurf_PSA>
164.96

>  <VolSurf_HSA>
333.626

>  <VolSurf_PSAR>
0.330855

>  <VolSurf_PHSAR>
0.494445

>  <VolSurf_LgD5>
-2.83759

>  <VolSurf_LgD6>
-4.5808

>  <VolSurf_LgD7>
-5.55754

>  <VolSurf_LgD7.5>
-5.72122

>  <VolSurf_LgD8>
-5.78198

>  <VolSurf_LgD9>
-5.80894

>  <VolSurf_LgD10>
-5.81167

>  <VolSurf_AUS7.4>
0.0

>  <VolSurf_%FU4>
1.36998

>  <VolSurf_%FU5>
0.0177488

>  <VolSurf_%FU6>
1.82595E-4

>  <VolSurf_%FU7>
1.83119E-6

>  <VolSurf_%FU8>
1.83172E-8

>  <VolSurf_%FU9>
1.83176E-10

>  <VolSurf_%FU10>
1.83169E-12

>  <ID>
432

>  <MOKAID>
433

>  <Clearance Route>
renal

>  <PC1>
-4.73692

>  <PC2>
1.0467600000000001

$$$$
Tilidine
  -OEChem-08301611272D

 20 21  0     1  0  0  0  0  0999 V2000
    4.3974    2.2162    0.0000 C   0  0  0  0  0  0  0  0  0  0  0  0
    3.4119    2.0465    0.0000 C   0  0  0  0  0  0  0  0  0  0  0  0
    3.0662    1.1081    0.0000 O   0  0  0  0  0  0  0  0  0  0  0  0
    2.0807    0.9383    0.0000 C   0  0  0  0  0  0  0  0  0  0  0  0
    1.4409    1.7069    0.0000 O   0  0  0  0  0  0  0  0  0  0  0  0
    1.7350   -0.0000    0.0000 C   0  0  2  0  0  0  0  0  0  0  0  0
    0.8675    0.5077    0.0000 C   0  0  0  0  0  0  0  0  0  0  0  0
    0.0000    0.0000    0.0000 C   0  0  0  0  0  0  0  0  0  0  0  0
   -0.0000   -1.0052    0.0000 C   0  0  0  0  0  0  0  0  0  0  0  0
    0.8675   -1.5027    0.0000 C   0  0  0  0  0  0  0  0  0  0  0  0
    1.7350   -1.0052    0.0000 C   0  0  1  0  0  0  0  0  0  0  0  0
    2.6003   -1.5065    0.0000 N   0  0  0  0  0  0  0  0  0  0  0  0
    3.4670   -1.0077    0.0000 C   0  0  0  0  0  0  0  0  0  0  0  0
    2.5988   -2.5065    0.0000 C   0  0  0  0  0  0  0  0  0  0  0  0
    3.4578   -0.3073    0.0000 C   0  0  0  0  0  0  0  0  0  0  0  0
    4.1032    0.4634    0.0000 C   0  0  0  0  0  0  0  0  0  0  0  0
    5.0877    0.2878    0.0000 C   0  0  0  0  0  0  0  0  0  0  0  0
    5.4334   -0.6505    0.0000 C   0  0  0  0  0  0  0  0  0  0  0  0
    4.7880   -1.4212    0.0000 C   0  0  0  0  0  0  0  0  0  0  0  0
    3.7969   -1.2535    0.0000 C   0  0  0  0  0  0  0  0  0  0  0  0
  1  2  1  0  0  0  0
  2  3  1  0  0  0  0
  3  4  1  0  0  0  0
  4  5  2  0  0  0  0
  6  4  1  1  0  0  0
  6 11  1  0  0  0  0
  6  7  1  0  0  0  0
  7  8  1  0  0  0  0
  8  9  1  0  0  0  0
  9 10  2  0  0  0  0
 10 11  1  0  0  0  0
 11 12  1  6  0  0  0
 12 13  1  0  0  0  0
 12 14  1  0  0  0  0
  6 15  1  0  0  0  0
 15 20  2  0  0  0  0
 15 16  1  0  0  0  0
 16 17  2  0  0  0  0
 17 18  1  0  0  0  0
 18 19  2  0  0  0  0
 19 20  1  0  0  0  0
M  END
>  <Name>
Tilidine

>  <CAS #>
51931-66-9

>  <human Clearance (mL/min/kg)>
16.0

>  <Primary mechanism (metabolic, biliary or renal)>
metabolic

>  <seqId>
907.0

>  <Code (mechanism and clearance degree index)>
M1

>  < Five M1 and R1 test groups>
M1_3

>  <formamide>
0

>  <prodrug phosphates>
0

>  <VolSurf_V>
680.625

>  <VolSurf_S>
448.98

>  <VolSurf_R>
1.51594

>  <VolSurf_G>
1.31433

>  <VolSurf_IW1>
0.0488294

>  <VolSurf_IW2>
0.256856

>  <VolSurf_IW3>
0.761376

>  <VolSurf_IW4>
1.21312

>  <VolSurf_ID1>
0.0205217

>  <VolSurf_ID2>
0.0910186

>  <VolSurf_ID3>
0.166982

>  <VolSurf_ID4>
0.355517

>  <VolSurf_HL1>
2.31707

>  <VolSurf_HL2>
3.4878

>  <VolSurf_A>
4.95888

>  <VolSurf_CP>
0.477237

>  <VolSurf_POL>
33.65

>  <VolSurf_MW>
274.378

>  <VolSurf_FLEX>
1.03089

>  <VolSurf_FLEX_RB>
0.128861

>  <VolSurf_NCC>
1.0

>  <VolSurf_LOGP n-Oct>
4.112

>  <VolSurf_LOGP c-Hex>
3.315

>  <VolSurf_PSA>
37.71

>  <VolSurf_HSA>
411.27

>  <VolSurf_PSAR>
0.0839904

>  <VolSurf_PHSAR>
0.0916917

>  <VolSurf_LgD5>
1.22291

>  <VolSurf_LgD6>
2.11107

>  <VolSurf_LgD7>
3.0624

>  <VolSurf_LgD7.5>
3.48507

>  <VolSurf_LgD8>
3.8058

>  <VolSurf_LgD9>
4.06965

>  <VolSurf_LgD10>
4.10757

>  <VolSurf_AUS7.4>
1.30939

>  <VolSurf_%FU4>
0.00975885

>  <VolSurf_%FU5>
0.0975028

>  <VolSurf_%FU6>
0.966547

>  <VolSurf_%FU7>
8.89196

>  <VolSurf_%FU8>
49.3922

>  <VolSurf_%FU9>
90.7061

>  <VolSurf_%FU10>
98.9858

>  <ID>
433

>  <MOKAID>
434

>  <Clearance Route>
metabolic

>  <PC1>
3.84975

>  <PC2>
0.18457

$$$$
Tiopronin
  -OEChem-08301611272D

 10  9  0     1  0  0  0  0  0999 V2000
    0.0000    0.0000    0.0000 C   0  0  0  0  0  0  0  0  0  0  0  0
    1.0000    0.0000    0.0000 C   0  0  1  0  0  0  0  0  0  0  0  0
    1.5000    0.8660    0.0000 C   0  0  0  0  0  0  0  0  0  0  0  0
    1.0000    1.7321    0.0000 N   0  0  0  0  0  0  0  0  0  0  0  0
    1.5000    2.5981    0.0000 C   0  0  0  0  0  0  0  0  0  0  0  0
    1.0000    3.4641    0.0000 C   0  0  0  0  0  0  0  0  0  0  0  0
    1.5000    4.3301    0.0000 O   0  0  0  0  0  0  0  0  0  0  0  0
    0.0000    3.4641    0.0000 O   0  0  0  0  0  0  0  0  0  0  0  0
    2.5000    0.8660    0.0000 O   0  0  0  0  0  0  0  0  0  0  0  0
    1.5000   -0.8660    0.0000 S   0  0  0  0  0  0  0  0  0  0  0  0
  1  2  1  0  0  0  0
  2  3  1  0  0  0  0
  3  4  1  0  0  0  0
  4  5  1  0  0  0  0
  5  6  1  0  0  0  0
  6  7  1  0  0  0  0
  6  8  2  0  0  0  0
  3  9  2  0  0  0  0
  2 10  1  1  0  0  0
M  END
>  <Name>
Tiopronin

>  <CAS #>
1953-02-2

>  <human Clearance (mL/min/kg)>
1.41

>  <Primary mechanism (metabolic, biliary or renal)>
renal

>  <seqId>
911.0

>  <Code (mechanism and clearance degree index)>
R1

>  < Five M1 and R1 test groups>
R1_2

>  <formamide>
0

>  <prodrug phosphates>
0

>  <VolSurf_V>
370.125

>  <VolSurf_S>
289.464

>  <VolSurf_R>
1.27866

>  <VolSurf_G>
1.25117

>  <VolSurf_IW1>
0.224988

>  <VolSurf_IW2>
0.446202

>  <VolSurf_IW3>
1.06968

>  <VolSurf_IW4>
1.46951

>  <VolSurf_ID1>
0.0703492

>  <VolSurf_ID2>
0.0534285

>  <VolSurf_ID3>
0.312572

>  <VolSurf_ID4>
0.0

>  <VolSurf_HL1>
29.1875

>  <VolSurf_HL2>
37.6429

>  <VolSurf_A>
3.14389

>  <VolSurf_CP>
0.188929

>  <VolSurf_POL>
14.337

>  <VolSurf_MW>
162.187

>  <VolSurf_FLEX>
0.96369

>  <VolSurf_FLEX_RB>
0.192738

>  <VolSurf_NCC>
1.0

>  <VolSurf_LOGP n-Oct>
-0.229

>  <VolSurf_LOGP c-Hex>
-3.631

>  <VolSurf_PSA>
114.02

>  <VolSurf_HSA>
175.444

>  <VolSurf_PSAR>
0.3939

>  <VolSurf_PHSAR>
0.649893

>  <VolSurf_LgD5>
-1.68725

>  <VolSurf_LgD6>
-2.64187

>  <VolSurf_LgD7>
-3.41487

>  <VolSurf_LgD7.5>
-3.63952

>  <VolSurf_LgD8>
-3.80592

>  <VolSurf_LgD9>
-4.33854

>  <VolSurf_LgD10>
-5.06434

>  <VolSurf_AUS7.4>
0.0

>  <VolSurf_%FU4>
26.3365

>  <VolSurf_%FU5>
3.45083

>  <VolSurf_%FU6>
0.355074

>  <VolSurf_%FU7>
0.0345799

>  <VolSurf_%FU8>
0.00267642

>  <VolSurf_%FU9>
8.20315E-5

>  <VolSurf_%FU10>
1.03349E-6

>  <ID>
434

>  <MOKAID>
435

>  <Clearance Route>
renal

>  <PC1>
-3.02461

>  <PC2>
4.21393

$$$$
Tiotropium
  -OEChem-08301611272D

 30 34  0     1  0  0  0  0  0999 V2000
    1.7500   -0.0024    0.0000 O   0  0  0  0  0  0  0  0  0  0  0  0
    2.2488   -0.8692    0.0000 C   0  0  0  0  0  0  0  0  0  0  0  0
    1.7476   -1.7345    0.0000 O   0  0  0  0  0  0  0  0  0  0  0  0
    3.2488   -0.8706    0.0000 C   0  0  0  0  0  0  0  0  0  0  0  0
    3.2502    0.1294    0.0000 C   0  0  0  0  0  0  0  0  0  0  0  0
    4.0632    0.7196    0.0000 S   0  0  0  0  0  0  0  0  0  0  0  0
    3.7507    1.6700    0.0000 C   0  0  0  0  0  0  0  0  0  0  0  0
    2.7507    1.6726    0.0000 C   0  0  0  0  0  0  0  0  0  0  0  0
    2.4412    0.7201    0.0000 C   0  0  0  0  0  0  0  0  0  0  0  0
    4.2488   -0.8719    0.0000 O   0  0  0  0  0  0  0  0  0  0  0  0
    3.2474   -1.8706    0.0000 C   0  0  0  0  0  0  0  0  0  0  0  0
    4.0564   -2.4612    0.0000 C   0  0  0  0  0  0  0  0  0  0  0  0
    3.7469   -3.4137    0.0000 C   0  0  0  0  0  0  0  0  0  0  0  0
    2.7469   -3.4111    0.0000 C   0  0  0  0  0  0  0  0  0  0  0  0
    2.4344   -2.4607    0.0000 S   0  0  0  0  0  0  0  0  0  0  0  0
    0.0000    0.0000    0.0000 C   0  0  0  0  0  0  0  0  0  0  0  0
   -0.5000   -0.8660    0.0000 C   0  0  0  0  0  0  0  0  0  0  0  0
   -1.5056   -0.8660    0.0000 C   0  0  2  0  0  0  0  0  0  0  0  0
   -2.4554   -0.4956    0.0000 C   0  0  1  0  0  0  0  0  0  0  0  0
   -3.3166    0.0133    0.0000 O   0  0  0  0  0  0  0  0  0  0  0  0
   -2.4453    0.5045    0.0000 C   0  0  1  0  0  0  0  0  0  0  0  0
   -1.5056    0.8716    0.0000 C   0  0  2  0  0  0  0  0  0  0  0  0
   -0.5000    0.8716    0.0000 C   0  0  0  0  0  0  0  0  0  0  0  0
   -0.9053   -0.0567    0.0000 N   0  3  0  0  0  0  0  0  0  0  0  0
    0.4404    1.0620    0.0000 C   0  0  0  0  0  0  0  0  0  0  0  0
    0.3659   -1.2594    0.0000 C   0  0  0  0  0  0  0  0  0  0  0  0
   -1.6904   -1.8488    0.0000 H   0  0  0  0  0  0  0  0  0  0  0  0
   -2.8929   -1.3948    0.0000 H   0  0  0  0  0  0  0  0  0  0  0  0
   -2.8738    1.4080    0.0000 H   0  0  0  0  0  0  0  0  0  0  0  0
   -1.6907    1.8543    0.0000 H   0  0  0  0  0  0  0  0  0  0  0  0
  1  2  1  0  0  0  0
  2  3  2  0  0  0  0
  2  4  1  0  0  0  0
  4  5  1  0  0  0  0
  5  9  2  0  0  0  0
  5  6  1  0  0  0  0
  6  7  1  0  0  0  0
  7  8  2  0  0  0  0
  8  9  1  0  0  0  0
  4 10  1  0  0  0  0
  4 11  1  0  0  0  0
 11 15  1  0  0  0  0
 11 12  2  0  0  0  0
 12 13  1  0  0  0  0
 13 14  2  0  0  0  0
 14 15  1  0  0  0  0
  1 16  1  0  0  0  0
 16 23  1  0  0  0  0
 16 17  1  0  0  0  0
 17 18  1  0  0  0  0
 18 24  1  0  0  0  0
 18 19  1  0  0  0  0
 19 21  1  0  0  0  0
 19 20  1  0  0  0  0
 20 21  1  0  0  0  0
 21 22  1  0  0  0  0
 22 23  1  0  0  0  0
 22 24  1  0  0  0  0
 24 25  1  0  0  0  0
 24 26  1  0  0  0  0
 18 27  1  1  0  0  0
 19 28  1  6  0  0  0
 21 29  1  6  0  0  0
 22 30  1  1  0  0  0
M  CHG  1  24   1
M  END
>  <Name>
Tiotropium

>  <CAS #>
186691-13-4

>  <human Clearance (mL/min/kg)>
12.6

>  <Primary mechanism (metabolic, biliary or renal)>
renal

>  <seqId>
912.0

>  <Code (mechanism and clearance degree index)>
R1

>  < Five M1 and R1 test groups>
R1_2

>  <formamide>
0

>  <prodrug phosphates>
0

>  <VolSurf_V>
791.5

>  <VolSurf_S>
521.388

>  <VolSurf_R>
1.51806

>  <VolSurf_G>
1.41438

>  <VolSurf_IW1>
0.0802097

>  <VolSurf_IW2>
0.257884

>  <VolSurf_IW3>
0.637172

>  <VolSurf_IW4>
0.974067

>  <VolSurf_ID1>
0.0388798

>  <VolSurf_ID2>
0.0803015

>  <VolSurf_ID3>
0.302438

>  <VolSurf_ID4>
0.0

>  <VolSurf_HL1>
9.18421

>  <VolSurf_HL2>
27.1538

>  <VolSurf_A>
5.44423

>  <VolSurf_CP>
0.148096

>  <VolSurf_POL>
39.572

>  <VolSurf_MW>
392.512

>  <VolSurf_FLEX>
2.00273

>  <VolSurf_FLEX_RB>
0.250342

>  <VolSurf_NCC>
1.0

>  <VolSurf_LOGP n-Oct>
-2.281

>  <VolSurf_LOGP c-Hex>
2.239

>  <VolSurf_PSA>
89.57

>  <VolSurf_HSA>
431.818

>  <VolSurf_PSAR>
0.171791

>  <VolSurf_PHSAR>
0.207425

>  <VolSurf_LgD5>
-2.281

>  <VolSurf_LgD6>
-2.281

>  <VolSurf_LgD7>
-2.281

>  <VolSurf_LgD7.5>
-2.281

>  <VolSurf_LgD8>
-2.281

>  <VolSurf_LgD9>
-2.281

>  <VolSurf_LgD10>
-2.28103

>  <VolSurf_AUS7.4>
0.0

>  <VolSurf_%FU4>
0.0

>  <VolSurf_%FU5>
0.0

>  <VolSurf_%FU6>
0.0

>  <VolSurf_%FU7>
0.0

>  <VolSurf_%FU8>
0.0

>  <VolSurf_%FU9>
0.0

>  <VolSurf_%FU10>
0.0

>  <ID>
435

>  <MOKAID>
436

>  <Clearance Route>
renal

>  <PC1>
-1.93058

>  <PC2>
0.155633

$$$$
Tizanidine
  -OEChem-08301611272D

 16 18  0     0  0  0  0  0  0999 V2000
   -0.8675    0.4975    0.0000 Cl  0  0  0  0  0  0  0  0  0  0  0  0
    0.0000    0.0000    0.0000 C   0  0  0  0  0  0  0  0  0  0  0  0
   -0.0000   -1.0058    0.0000 C   0  0  0  0  0  0  0  0  0  0  0  0
    0.8680   -1.5037    0.0000 C   0  0  0  0  0  0  0  0  0  0  0  0
    1.7360   -1.0071    0.0000 C   0  0  0  0  0  0  0  0  0  0  0  0
    2.6938   -1.3184    0.0000 N   0  0  0  0  0  0  0  0  0  0  0  0
    3.2858   -0.5036    0.0000 S   0  0  0  0  0  0  0  0  0  0  0  0
    2.6938    0.3110    0.0000 N   0  0  0  0  0  0  0  0  0  0  0  0
    1.7360   -0.0000    0.0000 C   0  0  0  0  0  0  0  0  0  0  0  0
    0.8680    0.5079    0.0000 C   0  0  0  0  0  0  0  0  0  0  0  0
    0.8680    1.5079    0.0000 N   0  0  0  0  0  0  0  0  0  0  0  0
    0.0020    2.0079    0.0000 C   0  0  0  0  0  0  0  0  0  0  0  0
   -0.9135    1.6014    0.0000 N   0  0  0  0  0  0  0  0  0  0  0  0
   -1.5845    2.3447    0.0000 C   0  0  0  0  0  0  0  0  0  0  0  0
   -1.0833    3.2101    0.0000 C   0  0  0  0  0  0  0  0  0  0  0  0
   -0.1040    3.0067    0.0000 N   0  0  0  0  0  0  0  0  0  0  0  0
  1  2  1  0  0  0  0
  2 10  2  0  0  0  0
  2  3  1  0  0  0  0
  3  4  2  0  0  0  0
  4  5  1  0  0  0  0
  5  9  1  0  0  0  0
  5  6  2  0  0  0  0
  6  7  1  0  0  0  0
  7  8  1  0  0  0  0
  8  9  2  0  0  0  0
  9 10  1  0  0  0  0
 10 11  1  0  0  0  0
 11 12  1  0  0  0  0
 12 16  1  0  0  0  0
 12 13  2  0  0  0  0
 13 14  1  0  0  0  0
 14 15  1  0  0  0  0
 15 16  1  0  0  0  0
M  END
>  <Name>
Tizanidine

>  <CAS #>
51322-75-9

>  <human Clearance (mL/min/kg)>
11.0

>  <Primary mechanism (metabolic, biliary or renal)>
metabolic

>  <seqId>
916.0

>  <Code (mechanism and clearance degree index)>
M1

>  < Five M1 and R1 test groups>
M1_4

>  <formamide>
0

>  <prodrug phosphates>
0

>  <VolSurf_V>
500.125

>  <VolSurf_S>
353.883

>  <VolSurf_R>
1.41325

>  <VolSurf_G>
1.25165

>  <VolSurf_IW1>
0.131745

>  <VolSurf_IW2>
0.379983

>  <VolSurf_IW3>
0.797578

>  <VolSurf_IW4>
1.11715

>  <VolSurf_ID1>
0.0593464

>  <VolSurf_ID2>
0.0792766

>  <VolSurf_ID3>
0.077063

>  <VolSurf_ID4>
0.15218

>  <VolSurf_HL1>
1.39418

>  <VolSurf_HL2>
1.09583

>  <VolSurf_A>
3.42717

>  <VolSurf_CP>
2.14854

>  <VolSurf_POL>
24.962

>  <VolSurf_MW>
254.719

>  <VolSurf_FLEX>
0.641332

>  <VolSurf_FLEX_RB>
0.320666

>  <VolSurf_NCC>
1.0

>  <VolSurf_LOGP n-Oct>
1.362

>  <VolSurf_LOGP c-Hex>
-0.979

>  <VolSurf_PSA>
73.12

>  <VolSurf_HSA>
280.763

>  <VolSurf_PSAR>
0.206622

>  <VolSurf_PHSAR>
0.260434

>  <VolSurf_LgD5>
-2.02041

>  <VolSurf_LgD6>
-1.52448

>  <VolSurf_LgD7>
-0.635614

>  <VolSurf_LgD7.5>
-0.154015

>  <VolSurf_LgD8>
0.315539

>  <VolSurf_LgD9>
1.05754

>  <VolSurf_LgD10>
1.31997

>  <VolSurf_AUS7.4>
0.492976

>  <VolSurf_%FU4>
9.83768E-4

>  <VolSurf_%FU5>
0.00983681

>  <VolSurf_%FU6>
0.0982811

>  <VolSurf_%FU7>
0.974194

>  <VolSurf_%FU8>
8.95664

>  <VolSurf_%FU9>
49.5911

>  <VolSurf_%FU10>
90.773

>  <ID>
436

>  <MOKAID>
437

>  <Clearance Route>
uncertain

>  <PC1>
0.75034

>  <PC2>
2.27295

$$$$
Tobramycin
  -OEChem-08301611272D

 32 34  0     1  0  0  0  0  0999 V2000
    2.5995    1.4976    0.0000 N   0  0  0  0  0  0  0  0  0  0  0  0
    1.7350    2.0001    0.0000 C   0  0  0  0  0  0  0  0  0  0  0  0
    0.8675    1.5027    0.0000 C   0  0  1  0  0  0  0  0  0  0  0  0
   -0.0000    2.0104    0.0000 O   0  0  0  0  0  0  0  0  0  0  0  0
   -0.8675    1.5027    0.0000 C   0  0  2  0  0  0  0  0  0  0  0  0
   -1.7350    2.0001    0.0000 O   0  0  0  0  0  0  0  0  0  0  0  0
   -1.7379    3.0001    0.0000 C   0  0  2  0  0  0  0  0  0  0  0  0
   -0.8674    3.5027    0.0000 C   0  0  1  0  0  0  0  0  0  0  0  0
   -0.0007    3.0040    0.0000 N   0  0  0  0  0  0  0  0  0  0  0  0
   -0.8703    4.5028    0.0000 C   0  0  0  0  0  0  0  0  0  0  0  0
   -1.7349    5.0053    0.0000 C   0  0  1  0  0  0  0  0  0  0  0  0
   -1.7335    6.0053    0.0000 N   0  0  0  0  0  0  0  0  0  0  0  0
   -2.6054    4.5027    0.0000 C   0  0  2  0  0  0  0  0  0  0  0  0
   -3.4700    5.0052    0.0000 O   0  0  0  0  0  0  0  0  0  0  0  0
   -4.3375    4.5078    0.0000 C   0  0  1  0  0  0  0  0  0  0  0  0
   -4.3375    3.5027    0.0000 O   0  0  0  0  0  0  0  0  0  0  0  0
   -5.2138    3.0104    0.0000 C   0  0  2  0  0  0  0  0  0  0  0  0
   -5.2227    2.0104    0.0000 C   0  0  0  0  0  0  0  0  0  0  0  0
   -6.0931    1.5181    0.0000 O   0  0  0  0  0  0  0  0  0  0  0  0
   -6.0814    3.5181    0.0000 C   0  0  1  0  0  0  0  0  0  0  0  0
   -6.9511    3.0245    0.0000 O   0  0  0  0  0  0  0  0  0  0  0  0
   -6.0726    4.5181    0.0000 C   0  0  2  0  0  0  0  0  0  0  0  0
   -6.9356    5.0232    0.0000 N   0  0  0  0  0  0  0  0  0  0  0  0
   -5.2050    5.0155    0.0000 C   0  0  1  0  0  0  0  0  0  0  0  0
   -5.2006    6.0155    0.0000 O   0  0  0  0  0  0  0  0  0  0  0  0
   -2.6114    3.4976    0.0000 C   0  0  1  0  0  0  0  0  0  0  0  0
   -3.4774    2.9976    0.0000 O   0  0  0  0  0  0  0  0  0  0  0  0
   -0.8675    0.4975    0.0000 C   0  0  2  0  0  0  0  0  0  0  0  0
   -1.7328   -0.0038    0.0000 N   0  0  0  0  0  0  0  0  0  0  0  0
    0.0000    0.0000    0.0000 C   0  0  0  0  0  0  0  0  0  0  0  0
    0.8675    0.4975    0.0000 C   0  0  2  0  0  0  0  0  0  0  0  0
    1.7328   -0.0038    0.0000 O   0  0  0  0  0  0  0  0  0  0  0  0
  1  2  1  0  0  0  0
  3  2  1  6  0  0  0
  3 31  1  0  0  0  0
  3  4  1  0  0  0  0
  4  5  1  0  0  0  0
  5  6  1  1  0  0  0
  7  6  1  1  0  0  0
  7 26  1  0  0  0  0
  7  8  1  0  0  0  0
  8  9  1  6  0  0  0
  8 10  1  0  0  0  0
 10 11  1  0  0  0  0
 11 12  1  6  0  0  0
 11 13  1  0  0  0  0
 13 14  1  1  0  0  0
 15 14  1  1  0  0  0
 15 24  1  0  0  0  0
 15 16  1  0  0  0  0
 16 17  1  0  0  0  0
 17 18  1  6  0  0  0
 18 19  1  0  0  0  0
 17 20  1  0  0  0  0
 20 21  1  1  0  0  0
 20 22  1  0  0  0  0
 22 23  1  6  0  0  0
 22 24  1  0  0  0  0
 24 25  1  1  0  0  0
 13 26  1  0  0  0  0
 26 27  1  6  0  0  0
  5 28  1  0  0  0  0
 28 29  1  1  0  0  0
 28 30  1  0  0  0  0
 30 31  1  0  0  0  0
 31 32  1  1  0  0  0
M  END
>  <Name>
Tobramycin

>  <CAS #>
32986-56-4

>  <human Clearance (mL/min/kg)>
1.6

>  <Primary mechanism (metabolic, biliary or renal)>
renal

>  <seqId>
918.0

>  <Code (mechanism and clearance degree index)>
R1

>  < Five M1 and R1 test groups>
R1_5

>  <formamide>
0

>  <prodrug phosphates>
0

>  <VolSurf_V>
858.375

>  <VolSurf_S>
588.728

>  <VolSurf_R>
1.45802

>  <VolSurf_G>
1.56483

>  <VolSurf_IW1>
0.0264632

>  <VolSurf_IW2>
0.0407488

>  <VolSurf_IW3>
0.11503

>  <VolSurf_IW4>
0.353869

>  <VolSurf_ID1>
0.0398484

>  <VolSurf_ID2>
0.0

>  <VolSurf_ID3>
0.0

>  <VolSurf_ID4>
0.0

>  <VolSurf_HL1>
740.0

>  <VolSurf_HL2>
393.0

>  <VolSurf_A>
0.0

>  <VolSurf_CP>
0.0

>  <VolSurf_POL>
47.816

>  <VolSurf_MW>
469.53

>  <VolSurf_FLEX>
1.91861

>  <VolSurf_FLEX_RB>
0.119913

>  <VolSurf_NCC>
2.0

>  <VolSurf_LOGP n-Oct>
-6.952

>  <VolSurf_LOGP c-Hex>
-8.336

>  <VolSurf_PSA>
298.55

>  <VolSurf_HSA>
290.178

>  <VolSurf_PSAR>
0.507111

>  <VolSurf_PHSAR>
1.02885

>  <VolSurf_LgD5>
-9.0

>  <VolSurf_LgD6>
-9.0

>  <VolSurf_LgD7>
-9.0

>  <VolSurf_LgD7.5>
-8.29252

>  <VolSurf_LgD8>
-7.59597

>  <VolSurf_LgD9>
-7.04578

>  <VolSurf_LgD10>
-6.96255

>  <VolSurf_AUS7.4>
0.563918

>  <VolSurf_%FU4>
2.21094E-13

>  <VolSurf_%FU5>
9.81548E-9

>  <VolSurf_%FU6>
1.3058E-4

>  <VolSurf_%FU7>
0.352012

>  <VolSurf_%FU8>
22.67

>  <VolSurf_%FU9>
80.5684

>  <VolSurf_%FU10>
97.5981

>  <ID>
437

>  <MOKAID>
438

>  <Clearance Route>
renal

>  <PC1>
-9.68069

>  <PC2>
-0.374119

$$$$
Tofacitinib
  -OEChem-08301611272D

 23 25  0     1  0  0  0  0  0999 V2000
   -0.9583    2.6969    0.0000 C   0  0  1  0  0  0  0  0  0  0  0  0
   -0.9598    1.6969    0.0000 C   0  0  2  0  0  0  0  0  0  0  0  0
   -0.0885    1.1956    0.0000 C   0  0  0  0  0  0  0  0  0  0  0  0
    0.7842    1.6943    0.0000 N   0  0  0  0  0  0  0  0  0  0  0  0
    0.7768    2.6994    0.0000 C   0  0  0  0  0  0  0  0  0  0  0  0
   -0.0945    3.2007    0.0000 C   0  0  0  0  0  0  0  0  0  0  0  0
    1.6509    1.1955    0.0000 C   0  0  0  0  0  0  0  0  0  0  0  0
    1.6524    0.1955    0.0000 O   0  0  0  0  0  0  0  0  0  0  0  0
    2.5162    1.6968    0.0000 C   0  0  0  0  0  0  0  0  0  0  0  0
    3.3830    1.1980    0.0000 C   0  0  0  0  0  0  0  0  0  0  0  0
    4.2497    0.6993    0.0000 N   0  0  0  0  0  0  0  0  0  0  0  0
   -1.8258    1.1969    0.0000 N   0  0  3  0  0  0  0  0  0  0  0  0
   -1.8258    0.1969    0.0000 C   0  0  0  0  0  0  0  0  0  0  0  0
   -2.6938   -0.3110    0.0000 N   0  0  0  0  0  0  0  0  0  0  0  0
   -2.6938   -1.3168    0.0000 C   0  0  0  0  0  0  0  0  0  0  0  0
   -1.8258   -1.8147    0.0000 N   0  0  0  0  0  0  0  0  0  0  0  0
   -0.9578   -1.3181    0.0000 C   0  0  0  0  0  0  0  0  0  0  0  0
    0.0000   -1.6294    0.0000 N   0  0  0  0  0  0  0  0  0  0  0  0
    0.5920   -0.8146    0.0000 C   0  0  0  0  0  0  0  0  0  0  0  0
    0.0000    0.0000    0.0000 C   0  0  0  0  0  0  0  0  0  0  0  0
   -0.9578   -0.3110    0.0000 C   0  0  0  0  0  0  0  0  0  0  0  0
   -2.6918    1.6969    0.0000 C   0  0  0  0  0  0  0  0  0  0  0  0
   -1.8251    3.1957    0.0000 C   0  0  0  0  0  0  0  0  0  0  0  0
  1  6  1  0  0  0  0
  1  2  1  0  0  0  0
  2  3  1  0  0  0  0
  3  4  1  0  0  0  0
  4  5  1  0  0  0  0
  5  6  1  0  0  0  0
  4  7  1  0  0  0  0
  7  8  2  0  0  0  0
  7  9  1  0  0  0  0
  9 10  1  0  0  0  0
 10 11  3  0  0  0  0
  2 12  1  6  0  0  0
 12 13  1  0  0  0  0
 13 21  2  0  0  0  0
 13 14  1  0  0  0  0
 14 15  2  0  0  0  0
 15 16  1  0  0  0  0
 16 17  2  0  0  0  0
 17 21  1  0  0  0  0
 17 18  1  0  0  0  0
 18 19  1  0  0  0  0
 19 20  2  0  0  0  0
 20 21  1  0  0  0  0
 12 22  1  0  0  0  0
  1 23  1  6  0  0  0
M  END
>  <Name>
Tofacitinib

>  <CAS #>
477600-75-2

>  <human Clearance (mL/min/kg)>
5.88

>  <Primary mechanism (metabolic, biliary or renal)>
metabolic

>  <seqId>
920.0

>  <Code (mechanism and clearance degree index)>
M1

>  < Five M1 and R1 test groups>
M1_3

>  <formamide>
0

>  <prodrug phosphates>
0

>  <VolSurf_V>
689.5

>  <VolSurf_S>
460.084

>  <VolSurf_R>
1.49864

>  <VolSurf_G>
1.34585

>  <VolSurf_IW1>
0.112558

>  <VolSurf_IW2>
0.313979

>  <VolSurf_IW3>
0.652833

>  <VolSurf_IW4>
0.959563

>  <VolSurf_ID1>
0.0486497

>  <VolSurf_ID2>
0.074269

>  <VolSurf_ID3>
0.0894914

>  <VolSurf_ID4>
0.276799

>  <VolSurf_HL1>
1.46468

>  <VolSurf_HL2>
1.14848

>  <VolSurf_A>
4.27245

>  <VolSurf_CP>
1.67222

>  <VolSurf_POL>
33.539

>  <VolSurf_MW>
312.37

>  <VolSurf_FLEX>
2.0248

>  <VolSurf_FLEX_RB>
0.289258

>  <VolSurf_NCC>
0.0

>  <VolSurf_LOGP n-Oct>
1.539

>  <VolSurf_LOGP c-Hex>
-0.617

>  <VolSurf_PSA>
84.17

>  <VolSurf_HSA>
375.914

>  <VolSurf_PSAR>
0.182945

>  <VolSurf_PHSAR>
0.223907

>  <VolSurf_LgD5>
1.13046

>  <VolSurf_LgD6>
1.47595

>  <VolSurf_LgD7>
1.53227

>  <VolSurf_LgD7.5>
1.53686

>  <VolSurf_LgD8>
1.53832

>  <VolSurf_LgD9>
1.53891

>  <VolSurf_LgD10>
1.53878

>  <VolSurf_AUS7.4>
2.0

>  <VolSurf_%FU4>
6.01285

>  <VolSurf_%FU5>
39.0164

>  <VolSurf_%FU6>
86.4826

>  <VolSurf_%FU7>
98.461

>  <VolSurf_%FU8>
99.8434

>  <VolSurf_%FU9>
99.9794

>  <VolSurf_%FU10>
99.9485

>  <ID>
438

>  <MOKAID>
439

>  <Clearance Route>
metabolic

>  <PC1>
2.89878

>  <PC2>
0.924167

$$$$
Tolbutamide
  -OEChem-08301611272D

 18 18  0     0  0  0  0  0  0999 V2000
    5.2138    6.9899    0.0000 C   0  0  0  0  0  0  0  0  0  0  0  0
    4.3463    6.4925    0.0000 C   0  0  0  0  0  0  0  0  0  0  0  0
    4.3434    5.4925    0.0000 C   0  0  0  0  0  0  0  0  0  0  0  0
    3.4759    4.9950    0.0000 C   0  0  0  0  0  0  0  0  0  0  0  0
    3.4729    3.9950    0.0000 N   0  0  0  0  0  0  0  0  0  0  0  0
    2.6054    3.4976    0.0000 C   0  0  0  0  0  0  0  0  0  0  0  0
    1.7409    4.0001    0.0000 O   0  0  0  0  0  0  0  0  0  0  0  0
    2.6025    2.4976    0.0000 N   0  0  0  0  0  0  0  0  0  0  0  0
    1.7350    2.0001    0.0000 S   0  0  0  0  0  0  0  0  0  0  0  0
    2.2324    1.1326    0.0000 O   0  0  0  0  0  0  0  0  0  0  0  0
    1.2376    2.8676    0.0000 O   0  0  0  0  0  0  0  0  0  0  0  0
    0.8675    1.5027    0.0000 C   0  0  0  0  0  0  0  0  0  0  0  0
    0.8675    0.4975    0.0000 C   0  0  0  0  0  0  0  0  0  0  0  0
    0.0000    0.0000    0.0000 C   0  0  0  0  0  0  0  0  0  0  0  0
   -0.8675    0.4975    0.0000 C   0  0  0  0  0  0  0  0  0  0  0  0
   -1.7328   -0.0038    0.0000 C   0  0  0  0  0  0  0  0  0  0  0  0
   -0.8675    1.5027    0.0000 C   0  0  0  0  0  0  0  0  0  0  0  0
    0.0000    2.0104    0.0000 C   0  0  0  0  0  0  0  0  0  0  0  0
  1  2  1  0  0  0  0
  2  3  1  0  0  0  0
  3  4  1  0  0  0  0
  4  5  1  0  0  0  0
  5  6  1  0  0  0  0
  6  7  2  0  0  0  0
  6  8  1  0  0  0  0
  8  9  1  0  0  0  0
  9 10  2  0  0  0  0
  9 11  2  0  0  0  0
  9 12  1  0  0  0  0
 12 18  2  0  0  0  0
 12 13  1  0  0  0  0
 13 14  2  0  0  0  0
 14 15  1  0  0  0  0
 15 16  1  0  0  0  0
 15 17  2  0  0  0  0
 17 18  1  0  0  0  0
M  END
>  <Name>
Tolbutamide

>  <CAS #>
64-77-7

>  <human Clearance (mL/min/kg)>
0.21

>  <Primary mechanism (metabolic, biliary or renal)>
Metabolic

>  <seqId>
922.0

>  <Code (mechanism and clearance degree index)>
M1

>  < Five M1 and R1 test groups>
M1_1

>  <formamide>
0

>  <prodrug phosphates>
0

>  <VolSurf_V>
640.125

>  <VolSurf_S>
459.46

>  <VolSurf_R>
1.39321

>  <VolSurf_G>
1.44671

>  <VolSurf_IW1>
0.074425

>  <VolSurf_IW2>
0.205301

>  <VolSurf_IW3>
0.427155

>  <VolSurf_IW4>
1.1557

>  <VolSurf_ID1>
0.029182

>  <VolSurf_ID2>
0.160887

>  <VolSurf_ID3>
0.330766

>  <VolSurf_ID4>
0.390051

>  <VolSurf_HL1>
4.67368

>  <VolSurf_HL2>
5.4697

>  <VolSurf_A>
5.16148

>  <VolSurf_CP>
0.221673

>  <VolSurf_POL>
28.18

>  <VolSurf_MW>
269.34

>  <VolSurf_FLEX>
1.86848

>  <VolSurf_FLEX_RB>
0.233559

>  <VolSurf_NCC>
1.0

>  <VolSurf_LOGP n-Oct>
2.338

>  <VolSurf_LOGP c-Hex>
-0.891

>  <VolSurf_PSA>
71.62

>  <VolSurf_HSA>
387.84

>  <VolSurf_PSAR>
0.155879

>  <VolSurf_PHSAR>
0.184664

>  <VolSurf_LgD5>
2.13047

>  <VolSurf_LgD6>
1.4858

>  <VolSurf_LgD7>
0.551906

>  <VolSurf_LgD7.5>
0.0741971

>  <VolSurf_LgD8>
-0.373171

>  <VolSurf_LgD9>
-0.98139

>  <VolSurf_LgD10>
-1.14016

>  <VolSurf_AUS7.4>
0.128831

>  <VolSurf_%FU4>
94.2248

>  <VolSurf_%FU5>
61.9994

>  <VolSurf_%FU6>
14.0269

>  <VolSurf_%FU7>
1.60535

>  <VolSurf_%FU8>
0.162888

>  <VolSurf_%FU9>
0.0163127

>  <VolSurf_%FU10>
0.00163151

>  <ID>
439

>  <MOKAID>
440

>  <Clearance Route>
uncertain

>  <PC1>
0.313319

>  <PC2>
0.8961040000000001

$$$$
Tolcapone
  -OEChem-08301611272D

 20 21  0     0  0  0  0  0  0999 V2000
    1.7350    2.0001    0.0000 C   0  0  0  0  0  0  0  0  0  0  0  0
    0.8675    1.5027    0.0000 C   0  0  0  0  0  0  0  0  0  0  0  0
    0.8675    0.4975    0.0000 C   0  0  0  0  0  0  0  0  0  0  0  0
    0.0000    0.0000    0.0000 C   0  0  0  0  0  0  0  0  0  0  0  0
   -0.8675    0.4975    0.0000 C   0  0  0  0  0  0  0  0  0  0  0  0
   -0.8675    1.5027    0.0000 C   0  0  0  0  0  0  0  0  0  0  0  0
    0.0000    2.0104    0.0000 C   0  0  0  0  0  0  0  0  0  0  0  0
   -1.7328   -0.0038    0.0000 C   0  0  0  0  0  0  0  0  0  0  0  0
   -2.5995    0.4950    0.0000 O   0  0  0  0  0  0  0  0  0  0  0  0
   -1.7313   -1.0038    0.0000 C   0  0  0  0  0  0  0  0  0  0  0  0
   -2.6026   -1.5050    0.0000 C   0  0  0  0  0  0  0  0  0  0  0  0
   -2.6012   -2.5051    0.0000 C   0  0  0  0  0  0  0  0  0  0  0  0
   -3.4680   -3.0038    0.0000 O   0  0  0  0  0  0  0  0  0  0  0  0
   -1.7374   -3.0089    0.0000 C   0  0  0  0  0  0  0  0  0  0  0  0
   -1.7403   -4.0089    0.0000 O   0  0  0  0  0  0  0  0  0  0  0  0
   -0.8661   -2.5076    0.0000 C   0  0  0  0  0  0  0  0  0  0  0  0
   -0.8587   -1.5025    0.0000 C   0  0  0  0  0  0  0  0  0  0  0  0
   -0.0023   -3.0115    0.0000 N   0  0  0  0  0  0  0  0  0  0  0  0
    0.8659   -2.5153    0.0000 O   0  0  0  0  0  0  0  0  0  0  0  0
   -0.0068   -4.0114    0.0000 O   0  0  0  0  0  0  0  0  0  0  0  0
  1  2  1  0  0  0  0
  2  7  2  0  0  0  0
  2  3  1  0  0  0  0
  3  4  2  0  0  0  0
  4  5  1  0  0  0  0
  5  6  2  0  0  0  0
  6  7  1  0  0  0  0
  5  8  1  0  0  0  0
  8  9  2  0  0  0  0
  8 10  1  0  0  0  0
 10 17  2  0  0  0  0
 10 11  1  0  0  0  0
 11 12  2  0  0  0  0
 12 13  1  0  0  0  0
 12 14  1  0  0  0  0
 14 15  1  0  0  0  0
 14 16  2  0  0  0  0
 16 17  1  0  0  0  0
 16 18  1  0  0  0  0
 18 19  2  0  0  0  0
 18 20  2  0  0  0  0
M  END
>  <Name>
Tolcapone

>  <CAS #>
134308-13-7

>  <human Clearance (mL/min/kg)>
1.9

>  <Primary mechanism (metabolic, biliary or renal)>
Metabolic

>  <seqId>
923.0

>  <Code (mechanism and clearance degree index)>
M1

>  < Five M1 and R1 test groups>
M1_5

>  <formamide>
0

>  <prodrug phosphates>
0

>  <VolSurf_V>
586.625

>  <VolSurf_S>
406.688

>  <VolSurf_R>
1.44245

>  <VolSurf_G>
1.31463

>  <VolSurf_IW1>
0.108295

>  <VolSurf_IW2>
0.275694

>  <VolSurf_IW3>
0.747418

>  <VolSurf_IW4>
1.26942

>  <VolSurf_ID1>
0.0887834

>  <VolSurf_ID2>
0.107739

>  <VolSurf_ID3>
0.136993

>  <VolSurf_ID4>
0.201327

>  <VolSurf_HL1>
1.5649

>  <VolSurf_HL2>
1.15261

>  <VolSurf_A>
4.82309

>  <VolSurf_CP>
1.15545

>  <VolSurf_POL>
26.486

>  <VolSurf_MW>
272.233

>  <VolSurf_FLEX>
0.939176

>  <VolSurf_FLEX_RB>
0.187835

>  <VolSurf_NCC>
1.0

>  <VolSurf_LOGP n-Oct>
3.011

>  <VolSurf_LOGP c-Hex>
0.904

>  <VolSurf_PSA>
97.51

>  <VolSurf_HSA>
309.178

>  <VolSurf_PSAR>
0.239766

>  <VolSurf_PHSAR>
0.315385

>  <VolSurf_LgD5>
2.60837

>  <VolSurf_LgD6>
1.82199

>  <VolSurf_LgD7>
1.03158

>  <VolSurf_LgD7.5>
0.791546

>  <VolSurf_LgD8>
0.656133

>  <VolSurf_LgD9>
0.363077

>  <VolSurf_LgD10>
-0.303476

>  <VolSurf_AUS7.4>
0.0

>  <VolSurf_%FU4>
86.6304

>  <VolSurf_%FU5>
39.3172

>  <VolSurf_%FU6>
6.08017

>  <VolSurf_%FU7>
0.637999

>  <VolSurf_%FU8>
0.0593295

>  <VolSurf_%FU9>
0.0033834

>  <VolSurf_%FU10>
6.38341E-5

>  <ID>
440

>  <MOKAID>
441

>  <Clearance Route>
uncertain

>  <PC1>
0.776762

>  <PC2>
2.008

$$$$
Tolterodine
  -OEChem-08301611272D

 24 25  0     1  0  0  0  0  0999 V2000
    5.1932   -0.0101    0.0000 C   0  0  0  0  0  0  0  0  0  0  0  0
    4.3286    0.4925    0.0000 C   0  0  0  0  0  0  0  0  0  0  0  0
    3.4611   -0.0050    0.0000 C   0  0  0  0  0  0  0  0  0  0  0  0
    4.3316    1.4925    0.0000 N   0  0  0  0  0  0  0  0  0  0  0  0
    3.4670    1.9950    0.0000 C   0  0  0  0  0  0  0  0  0  0  0  0
    2.5995    1.4976    0.0000 C   0  0  0  0  0  0  0  0  0  0  0  0
    1.7350    2.0001    0.0000 C   0  0  2  0  0  0  0  0  0  0  0  0
    0.8675    1.5027    0.0000 C   0  0  0  0  0  0  0  0  0  0  0  0
    0.8675    0.4975    0.0000 C   0  0  0  0  0  0  0  0  0  0  0  0
    0.0000    0.0000    0.0000 C   0  0  0  0  0  0  0  0  0  0  0  0
   -0.8675    0.4975    0.0000 C   0  0  0  0  0  0  0  0  0  0  0  0
   -0.8675    1.5027    0.0000 C   0  0  0  0  0  0  0  0  0  0  0  0
    0.0000    2.0104    0.0000 C   0  0  0  0  0  0  0  0  0  0  0  0
    1.7379    3.0001    0.0000 C   0  0  0  0  0  0  0  0  0  0  0  0
    2.6114    3.4976    0.0000 C   0  0  0  0  0  0  0  0  0  0  0  0
    2.6054    4.5027    0.0000 C   0  0  0  0  0  0  0  0  0  0  0  0
    3.4700    5.0052    0.0000 C   0  0  0  0  0  0  0  0  0  0  0  0
    1.7349    5.0053    0.0000 C   0  0  0  0  0  0  0  0  0  0  0  0
    0.8703    4.5028    0.0000 C   0  0  0  0  0  0  0  0  0  0  0  0
    0.8674    3.5027    0.0000 C   0  0  0  0  0  0  0  0  0  0  0  0
    0.0007    3.0040    0.0000 O   0  0  0  0  0  0  0  0  0  0  0  0
    5.1991    1.9899    0.0000 C   0  0  0  0  0  0  0  0  0  0  0  0
    5.2020    2.9899    0.0000 C   0  0  0  0  0  0  0  0  0  0  0  0
    6.0636    1.4874    0.0000 C   0  0  0  0  0  0  0  0  0  0  0  0
  1  2  1  0  0  0  0
  2  3  1  0  0  0  0
  2  4  1  0  0  0  0
  4  5  1  0  0  0  0
  5  6  1  0  0  0  0
  7  6  1  6  0  0  0
  7  8  1  0  0  0  0
  8 13  2  0  0  0  0
  8  9  1  0  0  0  0
  9 10  2  0  0  0  0
 10 11  1  0  0  0  0
 11 12  2  0  0  0  0
 12 13  1  0  0  0  0
  7 14  1  0  0  0  0
 14 20  2  0  0  0  0
 14 15  1  0  0  0  0
 15 16  2  0  0  0  0
 16 17  1  0  0  0  0
 16 18  1  0  0  0  0
 18 19  2  0  0  0  0
 19 20  1  0  0  0  0
 20 21  1  0  0  0  0
  4 22  1  0  0  0  0
 22 23  1  0  0  0  0
 22 24  1  0  0  0  0
M  END
>  <Name>
Tolterodine

>  <CAS #>
124937-51-5

>  <human Clearance (mL/min/kg)>
8.4

>  <Primary mechanism (metabolic, biliary or renal)>
Metabolic

>  <seqId>
925.0

>  <Code (mechanism and clearance degree index)>
M1

>  < Five M1 and R1 test groups>
M1_3

>  <formamide>
0

>  <prodrug phosphates>
0

>  <VolSurf_V>
859.125

>  <VolSurf_S>
561.118

>  <VolSurf_R>
1.5311

>  <VolSurf_G>
1.45478

>  <VolSurf_IW1>
0.0328411

>  <VolSurf_IW2>
0.25988

>  <VolSurf_IW3>
0.667681

>  <VolSurf_IW4>
0.932588

>  <VolSurf_ID1>
0.0162306

>  <VolSurf_ID2>
0.0570625

>  <VolSurf_ID3>
0.146416

>  <VolSurf_ID4>
0.213018

>  <VolSurf_HL1>
0.316027

>  <VolSurf_HL2>
0.265116

>  <VolSurf_A>
5.20013

>  <VolSurf_CP>
4.33678

>  <VolSurf_POL>
42.355

>  <VolSurf_MW>
326.495

>  <VolSurf_FLEX>
2.00092

>  <VolSurf_FLEX_RB>
0.153917

>  <VolSurf_NCC>
1.0

>  <VolSurf_LOGP n-Oct>
5.381

>  <VolSurf_LOGP c-Hex>
4.867

>  <VolSurf_PSA>
31.64

>  <VolSurf_HSA>
529.478

>  <VolSurf_PSAR>
0.0563875

>  <VolSurf_PHSAR>
0.059757

>  <VolSurf_LgD5>
1.96427

>  <VolSurf_LgD6>
2.37409

>  <VolSurf_LgD7>
3.22336

>  <VolSurf_LgD7.5>
3.70352

>  <VolSurf_LgD8>
4.17977

>  <VolSurf_LgD9>
4.95979

>  <VolSurf_LgD10>
4.96894

>  <VolSurf_AUS7.4>
0.371382

>  <VolSurf_%FU4>
6.68633E-4

>  <VolSurf_%FU5>
0.00668592

>  <VolSurf_%FU6>
0.066819

>  <VolSurf_%FU7>
0.66419

>  <VolSurf_%FU8>
6.2616

>  <VolSurf_%FU9>
37.8616

>  <VolSurf_%FU10>
38.3766

>  <ID>
441

>  <MOKAID>
442

>  <Clearance Route>
metabolic

>  <PC1>
3.65216

>  <PC2>
-1.3363

$$$$
Tolvaptan
  -OEChem-08301611272D

 32 35  0     1  0  0  0  0  0999 V2000
   -4.6693   -5.5959    0.0000 C   0  0  0  0  0  0  0  0  0  0  0  0
   -3.9314   -4.9210    0.0000 C   0  0  0  0  0  0  0  0  0  0  0  0
   -2.9762   -5.2171    0.0000 C   0  0  0  0  0  0  0  0  0  0  0  0
   -2.7567   -6.1980    0.0000 C   0  0  0  0  0  0  0  0  0  0  0  0
   -3.4924   -6.8829    0.0000 C   0  0  0  0  0  0  0  0  0  0  0  0
   -4.4499   -6.5768    0.0000 C   0  0  0  0  0  0  0  0  0  0  0  0
   -1.8015   -6.4940    0.0000 C   0  0  0  0  0  0  0  0  0  0  0  0
   -2.2412   -4.5390    0.0000 C   0  0  0  0  0  0  0  0  0  0  0  0
   -2.4610   -3.5634    0.0000 O   0  0  0  0  0  0  0  0  0  0  0  0
   -1.2865   -4.8364    0.0000 N   0  0  0  0  0  0  0  0  0  0  0  0
   -0.5515   -4.1583    0.0000 C   0  0  0  0  0  0  0  0  0  0  0  0
   -0.7753   -3.1784    0.0000 C   0  0  0  0  0  0  0  0  0  0  0  0
   -0.0403   -2.5002    0.0000 C   0  0  0  0  0  0  0  0  0  0  0  0
    0.9162   -2.7921    0.0000 C   0  0  0  0  0  0  0  0  0  0  0  0
    1.6481   -2.1108    0.0000 C   0  0  0  0  0  0  0  0  0  0  0  0
    2.6042   -2.4040    0.0000 O   0  0  0  0  0  0  0  0  0  0  0  0
    1.4241   -1.1362    0.0000 N   0  0  0  0  0  0  0  0  0  0  0  0
    0.4360   -0.9143    0.0000 C   0  0  0  0  0  0  0  0  0  0  0  0
    0.0000    0.0000    0.0000 C   0  0  0  0  0  0  0  0  0  0  0  0
    0.4384    0.9159    0.0000 C   0  0  0  0  0  0  0  0  0  0  0  0
    1.4290    1.1418    0.0000 C   0  0  1  0  0  0  0  0  0  0  0  0
    2.2220    0.5029    0.0000 C   0  0  0  0  0  0  0  0  0  0  0  0
    2.2192   -0.5026    0.0000 C   0  0  0  0  0  0  0  0  0  0  0  0
    3.0837   -1.0052    0.0000 C   0  0  0  0  0  0  0  0  0  0  0  0
    3.9567   -0.5076    0.0000 C   0  0  0  0  0  0  0  0  0  0  0  0
    3.9596    0.4979    0.0000 C   0  0  0  0  0  0  0  0  0  0  0  0
    3.0895    1.0060    0.0000 C   0  0  0  0  0  0  0  0  0  0  0  0
    4.8276    0.9945    0.0000 Cl  0  0  0  0  0  0  0  0  0  0  0  0
    1.6540    2.1161    0.0000 O   0  0  0  0  0  0  0  0  0  0  0  0
    1.1400   -3.7721    0.0000 C   0  0  0  0  0  0  0  0  0  0  0  0
    0.4073   -4.4602    0.0000 C   0  0  0  0  0  0  0  0  0  0  0  0
    2.0964   -4.0639    0.0000 C   0  0  0  0  0  0  0  0  0  0  0  0
  1  6  2  0  0  0  0
  1  2  1  0  0  0  0
  2  3  2  0  0  0  0
  3  4  1  0  0  0  0
  4  5  2  0  0  0  0
  5  6  1  0  0  0  0
  4  7  1  0  0  0  0
  3  8  1  0  0  0  0
  8  9  2  0  0  0  0
  8 10  1  0  0  0  0
 10 11  1  0  0  0  0
 11 31  2  0  0  0  0
 11 12  1  0  0  0  0
 12 13  2  0  0  0  0
 13 14  1  0  0  0  0
 14 15  1  0  0  0  0
 15 16  2  0  0  0  0
 15 17  1  0  0  0  0
 17 23  1  0  0  0  0
 17 18  1  0  0  0  0
 18 19  1  0  0  0  0
 19 20  1  0  0  0  0
 20 21  1  0  0  0  0
 21 22  1  0  0  0  0
 22 27  2  0  0  0  0
 22 23  1  0  0  0  0
 23 24  2  0  0  0  0
 24 25  1  0  0  0  0
 25 26  2  0  0  0  0
 26 27  1  0  0  0  0
 26 28  1  0  0  0  0
 21 29  1  6  0  0  0
 14 30  2  0  0  0  0
 30 31  1  0  0  0  0
 30 32  1  0  0  0  0
M  END
>  <Name>
Tolvaptan

>  <CAS #>
150683-30-0

>  <human Clearance (mL/min/kg)>
2.4

>  <Primary mechanism (metabolic, biliary or renal)>
Metabolic

>  <seqId>
926.0

>  <Code (mechanism and clearance degree index)>
M1

>  < Five M1 and R1 test groups>
M1_2

>  <formamide>
0

>  <prodrug phosphates>
0

>  <VolSurf_V>
956.75

>  <VolSurf_S>
633.605

>  <VolSurf_R>
1.51001

>  <VolSurf_G>
1.56748

>  <VolSurf_IW1>
0.0489144

>  <VolSurf_IW2>
0.161294

>  <VolSurf_IW3>
0.377851

>  <VolSurf_IW4>
0.415269

>  <VolSurf_ID1>
0.0244423

>  <VolSurf_ID2>
0.0486189

>  <VolSurf_ID3>
0.099833

>  <VolSurf_ID4>
0.107104

>  <VolSurf_HL1>
1.28086

>  <VolSurf_HL2>
1.15746

>  <VolSurf_A>
3.99499

>  <VolSurf_CP>
2.14384

>  <VolSurf_POL>
48.769

>  <VolSurf_MW>
448.941

>  <VolSurf_FLEX>
1.47045

>  <VolSurf_FLEX_RB>
0.210065

>  <VolSurf_NCC>
0.0

>  <VolSurf_LOGP n-Oct>
5.196

>  <VolSurf_LOGP c-Hex>
2.796

>  <VolSurf_PSA>
69.41

>  <VolSurf_HSA>
564.195

>  <VolSurf_PSAR>
0.109548

>  <VolSurf_PHSAR>
0.123025

>  <VolSurf_LgD5>
5.196

>  <VolSurf_LgD6>
5.196

>  <VolSurf_LgD7>
5.196

>  <VolSurf_LgD7.5>
5.196

>  <VolSurf_LgD8>
5.19599

>  <VolSurf_LgD9>
5.19595

>  <VolSurf_LgD10>
5.19546

>  <VolSurf_AUS7.4>
2.0

>  <VolSurf_%FU4>
100.0

>  <VolSurf_%FU5>
100.0

>  <VolSurf_%FU6>
100.0

>  <VolSurf_%FU7>
99.9999

>  <VolSurf_%FU8>
99.9988

>  <VolSurf_%FU9>
99.9876

>  <VolSurf_%FU10>
99.8764

>  <ID>
442

>  <MOKAID>
443

>  <Clearance Route>
metabolic

>  <PC1>
5.73796

>  <PC2>
-2.3231900000000003

$$$$
Topiramate
  -OEChem-08301611272D

 25 27  0     1  0  0  0  0  0999 V2000
    3.0937    1.2078    0.0000 C   0  0  1  0  0  0  0  0  0  0  0  0
    2.5895    0.3345    0.0000 C   0  0  2  0  0  0  0  0  0  0  0  0
    1.5812    0.3442    0.0000 C   0  0  1  0  0  0  0  0  0  0  0  0
    1.0770    1.2078    0.0000 C   0  0  1  0  0  0  0  0  0  0  0  0
    1.5840    2.0818    0.0000 C   0  0  0  0  0  0  0  0  0  0  0  0
    2.5923    2.0818    0.0000 O   0  0  0  0  0  0  0  0  0  0  0  0
    0.0999    0.9951    0.0000 O   0  0  0  0  0  0  0  0  0  0  0  0
   -0.0000    0.0000    0.0000 C   0  0  0  0  0  0  0  0  0  0  0  0
    0.9156   -0.4022    0.0000 O   0  0  0  0  0  0  0  0  0  0  0  0
   -0.3044   -0.9526    0.0000 C   0  0  0  0  0  0  0  0  0  0  0  0
   -0.9791    0.2032    0.0000 C   0  0  0  0  0  0  0  0  0  0  0  0
    3.2641   -0.4148    0.0000 O   0  0  0  0  0  0  0  0  0  0  0  0
    4.1854   -0.0047    0.0000 C   0  0  0  0  0  0  0  0  0  0  0  0
    4.0799    0.9981    0.0000 O   0  0  0  0  0  0  0  0  0  0  0  0
    5.1635    0.2032    0.0000 C   0  0  0  0  0  0  0  0  0  0  0  0
    4.4944   -0.9558    0.0000 C   0  0  0  0  0  0  0  0  0  0  0  0
    3.6826    2.0160    0.0000 C   0  0  0  0  0  0  0  0  0  0  0  0
    3.2772    2.9301    0.0000 O   0  0  0  0  0  0  0  0  0  0  0  0
    3.8661    3.7383    0.0000 S   0  0  0  0  0  0  0  0  0  0  0  0
    3.0579    4.3272    0.0000 O   0  0  0  0  0  0  0  0  0  0  0  0
    4.6743    3.1494    0.0000 O   0  0  0  0  0  0  0  0  0  0  0  0
    4.4550    4.5465    0.0000 N   0  0  0  0  0  0  0  0  0  0  0  0
    2.1783   -0.5771    0.0000 H   0  0  0  0  0  0  0  0  0  0  0  0
    1.9857   -0.5703    0.0000 H   0  0  0  0  0  0  0  0  0  0  0  0
    0.4881    2.0160    0.0000 H   0  0  0  0  0  0  0  0  0  0  0  0
  1 14  1  0  0  0  0
  1  6  1  0  0  0  0
  1  2  1  0  0  0  0
  2  3  1  0  0  0  0
  3  9  1  0  0  0  0
  3  4  1  0  0  0  0
  4  5  1  0  0  0  0
  5  6  1  0  0  0  0
  4  7  1  0  0  0  0
  7  8  1  0  0  0  0
  8  9  1  0  0  0  0
  8 10  1  0  0  0  0
  8 11  1  0  0  0  0
  2 12  1  0  0  0  0
 12 13  1  0  0  0  0
 13 14  1  0  0  0  0
 13 15  1  0  0  0  0
 13 16  1  0  0  0  0
  1 17  1  6  0  0  0
 17 18  1  0  0  0  0
 18 19  1  0  0  0  0
 19 20  2  0  0  0  0
 19 21  2  0  0  0  0
 19 22  1  0  0  0  0
  2 23  1  6  0  0  0
  3 24  1  1  0  0  0
  4 25  1  1  0  0  0
M  END
>  <Name>
Topiramate

>  <CAS #>
97240-79-4

>  <human Clearance (mL/min/kg)>
0.27

>  <Primary mechanism (metabolic, biliary or renal)>
renal

>  <seqId>
929.0

>  <Code (mechanism and clearance degree index)>
R1

>  < Five M1 and R1 test groups>
R1_1

>  <formamide>
0

>  <prodrug phosphates>
0

>  <VolSurf_V>
644.375

>  <VolSurf_S>
455.132

>  <VolSurf_R>
1.4158

>  <VolSurf_G>
1.41691

>  <VolSurf_IW1>
0.0726757

>  <VolSurf_IW2>
0.133385

>  <VolSurf_IW3>
0.206033

>  <VolSurf_IW4>
0.536177

>  <VolSurf_ID1>
0.0452288

>  <VolSurf_ID2>
0.096484

>  <VolSurf_ID3>
0.0

>  <VolSurf_ID4>
0.0

>  <VolSurf_HL1>
68.3889

>  <VolSurf_HL2>
136.5

>  <VolSurf_A>
3.79053

>  <VolSurf_CP>
0.0231002

>  <VolSurf_POL>
30.045

>  <VolSurf_MW>
339.362

>  <VolSurf_FLEX>
1.04133

>  <VolSurf_FLEX_RB>
0.130167

>  <VolSurf_NCC>
0.0

>  <VolSurf_LOGP n-Oct>
0.465

>  <VolSurf_LOGP c-Hex>
1.381

>  <VolSurf_PSA>
140.062

>  <VolSurf_HSA>
315.069

>  <VolSurf_PSAR>
0.307741

>  <VolSurf_PHSAR>
0.444545

>  <VolSurf_LgD5>
0.464888

>  <VolSurf_LgD6>
0.463883

>  <VolSurf_LgD7>
0.453959

>  <VolSurf_LgD7.5>
0.431003

>  <VolSurf_LgD8>
0.365499

>  <VolSurf_LgD9>
-0.0880225

>  <VolSurf_LgD10>
-0.958934

>  <VolSurf_AUS7.4>
1.976

>  <VolSurf_%FU4>
99.9974

>  <VolSurf_%FU5>
99.9743

>  <VolSurf_%FU6>
99.7431

>  <VolSurf_%FU7>
97.4889

>  <VolSurf_%FU8>
79.5176

>  <VolSurf_%FU9>
27.9656

>  <VolSurf_%FU10>
3.73717

>  <ID>
443

>  <MOKAID>
444

>  <Clearance Route>
uncertain

>  <PC1>
0.296511

>  <PC2>
0.637158

$$$$
Torsemide
  -OEChem-08301611272D

 24 25  0     0  0  0  0  0  0999 V2000
    6.0622   -0.5100    0.0000 C   0  0  0  0  0  0  0  0  0  0  0  0
    5.1969   -0.0088    0.0000 C   0  0  0  0  0  0  0  0  0  0  0  0
    5.1983    0.9912    0.0000 C   0  0  0  0  0  0  0  0  0  0  0  0
    4.3301   -0.5075    0.0000 N   0  0  0  0  0  0  0  0  0  0  0  0
    3.4648   -0.0063    0.0000 C   0  0  0  0  0  0  0  0  0  0  0  0
    3.4663    0.9937    0.0000 O   0  0  0  0  0  0  0  0  0  0  0  0
    2.5981   -0.5050    0.0000 N   0  0  0  0  0  0  0  0  0  0  0  0
    1.7328   -0.0038    0.0000 S   0  0  0  0  0  0  0  0  0  0  0  0
    1.2315   -0.8691    0.0000 O   0  0  0  0  0  0  0  0  0  0  0  0
    2.2341    0.8615    0.0000 O   0  0  0  0  0  0  0  0  0  0  0  0
    0.8675    0.4975    0.0000 C   0  0  0  0  0  0  0  0  0  0  0  0
    0.8675    1.5027    0.0000 C   0  0  0  0  0  0  0  0  0  0  0  0
   -0.0000    2.0104    0.0000 N   0  0  0  0  0  0  0  0  0  0  0  0
   -0.8675    1.5027    0.0000 C   0  0  0  0  0  0  0  0  0  0  0  0
   -0.8675    0.4975    0.0000 C   0  0  0  0  0  0  0  0  0  0  0  0
    0.0000    0.0000    0.0000 C   0  0  0  0  0  0  0  0  0  0  0  0
    0.0000   -1.0000    0.0000 N   0  0  0  0  0  0  0  0  0  0  0  0
   -0.8660   -1.5000    0.0000 C   0  0  0  0  0  0  0  0  0  0  0  0
   -0.8631   -2.5052    0.0000 C   0  0  0  0  0  0  0  0  0  0  0  0
   -1.7291   -3.0053    0.0000 C   0  0  0  0  0  0  0  0  0  0  0  0
   -2.5981   -2.5103    0.0000 C   0  0  0  0  0  0  0  0  0  0  0  0
   -2.6010   -1.5051    0.0000 C   0  0  0  0  0  0  0  0  0  0  0  0
   -3.4700   -1.0102    0.0000 C   0  0  0  0  0  0  0  0  0  0  0  0
   -1.7350   -0.9949    0.0000 C   0  0  0  0  0  0  0  0  0  0  0  0
  1  2  1  0  0  0  0
  2  3  1  0  0  0  0
  2  4  1  0  0  0  0
  4  5  1  0  0  0  0
  5  6  2  0  0  0  0
  5  7  1  0  0  0  0
  7  8  1  0  0  0  0
  8  9  2  0  0  0  0
  8 10  2  0  0  0  0
  8 11  1  0  0  0  0
 11 16  2  0  0  0  0
 11 12  1  0  0  0  0
 12 13  2  0  0  0  0
 13 14  1  0  0  0  0
 14 15  2  0  0  0  0
 15 16  1  0  0  0  0
 16 17  1  0  0  0  0
 17 18  1  0  0  0  0
 18 24  2  0  0  0  0
 18 19  1  0  0  0  0
 19 20  2  0  0  0  0
 20 21  1  0  0  0  0
 21 22  2  0  0  0  0
 22 23  1  0  0  0  0
 22 24  1  0  0  0  0
M  END
>  <Name>
Torsemide

>  <CAS #>
56211-40-6

>  <human Clearance (mL/min/kg)>
0.53

>  <Primary mechanism (metabolic, biliary or renal)>
metabolic

>  <seqId>
932.0

>  <Code (mechanism and clearance degree index)>
M1

>  < Five M1 and R1 test groups>
M1_4

>  <formamide>
0

>  <prodrug phosphates>
0

>  <VolSurf_V>
769.125

>  <VolSurf_S>
536.682

>  <VolSurf_R>
1.43311

>  <VolSurf_G>
1.52003

>  <VolSurf_IW1>
0.0799514

>  <VolSurf_IW2>
0.233197

>  <VolSurf_IW3>
0.44795

>  <VolSurf_IW4>
1.08103

>  <VolSurf_ID1>
0.0595294

>  <VolSurf_ID2>
0.155608

>  <VolSurf_ID3>
0.228264

>  <VolSurf_ID4>
0.317018

>  <VolSurf_HL1>
2.70123

>  <VolSurf_HL2>
2.18224

>  <VolSurf_A>
6.28922

>  <VolSurf_CP>
0.402726

>  <VolSurf_POL>
36.773

>  <VolSurf_MW>
347.412

>  <VolSurf_FLEX>
1.91132

>  <VolSurf_FLEX_RB>
0.212369

>  <VolSurf_NCC>
1.0

>  <VolSurf_LOGP n-Oct>
2.93

>  <VolSurf_LOGP c-Hex>
-2.54

>  <VolSurf_PSA>
96.28

>  <VolSurf_HSA>
440.402

>  <VolSurf_PSAR>
0.179399

>  <VolSurf_PHSAR>
0.218618

>  <VolSurf_LgD5>
-0.336362

>  <VolSurf_LgD6>
0.191782

>  <VolSurf_LgD7>
0.279108

>  <VolSurf_LgD7.5>
0.0277483

>  <VolSurf_LgD8>
-0.24814

>  <VolSurf_LgD9>
-0.52162

>  <VolSurf_LgD10>
-0.564876

>  <VolSurf_AUS7.4>
0.0

>  <VolSurf_%FU4>
0.0

>  <VolSurf_%FU5>
0.0

>  <VolSurf_%FU6>
0.0

>  <VolSurf_%FU7>
0.0

>  <VolSurf_%FU8>
0.0

>  <VolSurf_%FU9>
0.0

>  <VolSurf_%FU10>
0.0

>  <ID>
444

>  <MOKAID>
445

>  <Clearance Route>
possible billary

>  <PC1>
-0.760215

>  <PC2>
-0.127114

$$$$
Toxogonin
  -OEChem-08301611272D

 23 22  0     0  0  0  0  0  0999 V2000
    6.0712    0.0013    0.0000 N   0  3  0  0  0  0  0  0  0  0  0  0
    5.2037   -0.5064    0.0000 C   0  0  0  0  0  0  0  0  0  0  0  0
    5.2037   -1.5116    0.0000 C   0  0  0  0  0  0  0  0  0  0  0  0
    6.0712   -2.0091    0.0000 C   0  0  0  0  0  0  0  0  0  0  0  0
    6.0712   -3.0091    0.0000 C   0  0  0  0  0  0  0  0  0  0  0  0
    6.9372   -3.5091    0.0000 N   0  0  0  0  0  0  0  0  0  0  0  0
    6.9372   -4.5091    0.0000 O   0  0  0  0  0  0  0  0  0  0  0  0
    6.9387   -1.5116    0.0000 C   0  0  0  0  0  0  0  0  0  0  0  0
    6.9387   -0.5064    0.0000 C   0  0  0  0  0  0  0  0  0  0  0  0
    6.0712    1.0013    0.0000 C   0  0  0  0  0  0  0  0  0  0  0  0
    5.2052    1.5013    0.0000 O   0  0  0  0  0  0  0  0  0  0  0  0
    5.2052    2.5013    0.0000 C   0  0  0  0  0  0  0  0  0  0  0  0
    4.3391    3.0013    0.0000 N   0  3  0  0  0  0  0  0  0  0  0  0
    4.3332    4.0065    0.0000 C   0  0  0  0  0  0  0  0  0  0  0  0
    3.4627    4.5091    0.0000 C   0  0  0  0  0  0  0  0  0  0  0  0
    2.5981    4.0065    0.0000 C   0  0  0  0  0  0  0  0  0  0  0  0
    1.7321    4.5065    0.0000 C   0  0  0  0  0  0  0  0  0  0  0  0
    0.8660    4.0065    0.0000 N   0  0  0  0  0  0  0  0  0  0  0  0
    0.0000    4.5065    0.0000 O   0  0  0  0  0  0  0  0  0  0  0  0
    2.5952    3.0065    0.0000 C   0  0  0  0  0  0  0  0  0  0  0  0
    3.4657    2.5039    0.0000 C   0  0  0  0  0  0  0  0  0  0  0  0
    8.9387    0.0000    0.0000 Cl  0  5  0  0  0  1  0  0  0  0  0  0
   10.9387    0.0000    0.0000 Cl  0  5  0  0  0  1  0  0  0  0  0  0
  1  9  2  0  0  0  0
  1  2  1  0  0  0  0
  2  3  2  0  0  0  0
  3  4  1  0  0  0  0
  4  5  1  0  0  0  0
  5  6  2  0  0  0  0
  6  7  1  0  0  0  0
  4  8  2  0  0  0  0
  8  9  1  0  0  0  0
  1 10  1  0  0  0  0
 10 11  1  0  0  0  0
 11 12  1  0  0  0  0
 12 13  1  0  0  0  0
 13 21  2  0  0  0  0
 13 14  1  0  0  0  0
 14 15  2  0  0  0  0
 15 16  1  0  0  0  0
 16 17  1  0  0  0  0
 17 18  2  0  0  0  0
 18 19  1  0  0  0  0
 16 20  2  0  0  0  0
 20 21  1  0  0  0  0
M  CHG  4   1   1  13   1  22  -1  23  -1
M  END
>  <Name>
Toxogonin

>  <CAS #>
114-90-9

>  <human Clearance (mL/min/kg)>
1.9

>  <Primary mechanism (metabolic, biliary or renal)>
renal

>  <seqId>
933.0

>  <Code (mechanism and clearance degree index)>
R1

>  < Five M1 and R1 test groups>
R1_4

>  <formamide>
0

>  <prodrug phosphates>
0

>  <VolSurf_V>
649.25

>  <VolSurf_S>
471.6

>  <VolSurf_R>
1.3767

>  <VolSurf_G>
1.48328

>  <VolSurf_IW1>
0.0886485

>  <VolSurf_IW2>
0.208319

>  <VolSurf_IW3>
0.438207

>  <VolSurf_IW4>
0.568203

>  <VolSurf_ID1>
0.0593483

>  <VolSurf_ID2>
0.118746

>  <VolSurf_ID3>
0.169379

>  <VolSurf_ID4>
0.220885

>  <VolSurf_HL1>
3.75465

>  <VolSurf_HL2>
3.0137

>  <VolSurf_A>
4.67001

>  <VolSurf_CP>
0.442875

>  <VolSurf_POL>
28.709

>  <VolSurf_MW>
288.302

>  <VolSurf_FLEX>
1.78776

>  <VolSurf_FLEX_RB>
0.22347

>  <VolSurf_NCC>
2.0

>  <VolSurf_LOGP n-Oct>
-9.0

>  <VolSurf_LOGP c-Hex>
-2.211

>  <VolSurf_PSA>
86.91

>  <VolSurf_HSA>
384.69

>  <VolSurf_PSAR>
0.184288

>  <VolSurf_PHSAR>
0.225922

>  <VolSurf_LgD5>
-9.0

>  <VolSurf_LgD6>
-9.0

>  <VolSurf_LgD7>
-9.0

>  <VolSurf_LgD7.5>
-9.0

>  <VolSurf_LgD8>
-9.0

>  <VolSurf_LgD9>
-9.0

>  <VolSurf_LgD10>
-9.0

>  <VolSurf_AUS7.4>
0.0

>  <VolSurf_%FU4>
0.0

>  <VolSurf_%FU5>
0.0

>  <VolSurf_%FU6>
0.0

>  <VolSurf_%FU7>
0.0

>  <VolSurf_%FU8>
0.0

>  <VolSurf_%FU9>
0.0

>  <VolSurf_%FU10>
0.0

>  <ID>
445

>  <MOKAID>
446

>  <Clearance Route>
renal

>  <PC1>
-6.7724899999999995

>  <PC2>
2.32784

$$$$
Trandolapril
  -OEChem-08301611272D

 33 35  0     1  0  0  0  0  0999 V2000
    0.0000    1.0058    0.0000 C   0  0  0  0  0  0  0  0  0  0  0  0
   -0.0000    0.0000    0.0000 C   0  0  0  0  0  0  0  0  0  0  0  0
    0.8680   -0.4978    0.0000 C   0  0  0  0  0  0  0  0  0  0  0  0
    1.7360   -0.0012    0.0000 C   0  0  2  0  0  0  0  0  0  0  0  0
    2.6938   -0.3125    0.0000 C   0  0  0  0  0  0  0  0  0  0  0  0
    3.2858    0.5023    0.0000 C   0  0  2  0  0  0  0  0  0  0  0  0
    2.6938    1.3169    0.0000 N   0  0  0  0  0  0  0  0  0  0  0  0
    1.7360    1.0058    0.0000 C   0  0  2  0  0  0  0  0  0  0  0  0
    0.8680    1.5138    0.0000 C   0  0  0  0  0  0  0  0  0  0  0  0
    3.0028    2.2680    0.0000 C   0  0  0  0  0  0  0  0  0  0  0  0
    2.3337    3.0111    0.0000 C   0  0  2  0  0  0  0  0  0  0  0  0
    1.3555    2.8032    0.0000 C   0  0  0  0  0  0  0  0  0  0  0  0
    2.6427    3.9622    0.0000 N   0  0  0  0  0  0  0  0  0  0  0  0
    1.9735    4.7053    0.0000 C   0  0  1  0  0  0  0  0  0  0  0  0
    0.9954    4.4974    0.0000 C   0  0  0  0  0  0  0  0  0  0  0  0
    0.6864    3.5463    0.0000 C   0  0  0  0  0  0  0  0  0  0  0  0
   -0.2918    3.3384    0.0000 C   0  0  0  0  0  0  0  0  0  0  0  0
   -0.5996    2.3815    0.0000 C   0  0  0  0  0  0  0  0  0  0  0  0
   -1.5777    2.1735    0.0000 C   0  0  0  0  0  0  0  0  0  0  0  0
   -2.2512    2.9127    0.0000 C   0  0  0  0  0  0  0  0  0  0  0  0
   -1.9434    3.8696    0.0000 C   0  0  0  0  0  0  0  0  0  0  0  0
   -0.9621    4.0873    0.0000 C   0  0  0  0  0  0  0  0  0  0  0  0
    2.2825    5.6564    0.0000 C   0  0  0  0  0  0  0  0  0  0  0  0
    1.6134    6.3995    0.0000 O   0  0  0  0  0  0  0  0  0  0  0  0
    1.9224    7.3506    0.0000 C   0  0  0  0  0  0  0  0  0  0  0  0
    1.2533    8.0937    0.0000 C   0  0  0  0  0  0  0  0  0  0  0  0
    3.2607    5.8643    0.0000 O   0  0  0  0  0  0  0  0  0  0  0  0
    3.9810    2.4759    0.0000 O   0  0  0  0  0  0  0  0  0  0  0  0
    4.2858    0.5024    0.0000 C   0  0  0  0  0  0  0  0  0  0  0  0
    4.7859   -0.3636    0.0000 O   0  0  0  0  0  0  0  0  0  0  0  0
    4.7857    1.3684    0.0000 O   0  0  0  0  0  0  0  0  0  0  0  0
    1.8385   -0.9959    0.0000 H   0  0  0  0  0  0  0  0  0  0  0  0
    1.8435    2.0000    0.0000 H   0  0  0  0  0  0  0  0  0  0  0  0
  1  9  1  0  0  0  0
  1  2  1  0  0  0  0
  2  3  1  0  0  0  0
  3  4  1  0  0  0  0
  4  8  1  0  0  0  0
  4  5  1  0  0  0  0
  5  6  1  0  0  0  0
  6  7  1  0  0  0  0
  7  8  1  0  0  0  0
  8  9  1  0  0  0  0
  7 10  1  0  0  0  0
 10 11  1  0  0  0  0
 11 12  1  6  0  0  0
 11 13  1  0  0  0  0
 13 14  1  0  0  0  0
 14 15  1  1  0  0  0
 15 16  1  0  0  0  0
 16 17  1  0  0  0  0
 17 22  2  0  0  0  0
 17 18  1  0  0  0  0
 18 19  2  0  0  0  0
 19 20  1  0  0  0  0
 20 21  2  0  0  0  0
 21 22  1  0  0  0  0
 14 23  1  0  0  0  0
 23 24  1  0  0  0  0
 24 25  1  0  0  0  0
 25 26  1  0  0  0  0
 23 27  2  0  0  0  0
 10 28  2  0  0  0  0
  6 29  1  6  0  0  0
 29 30  2  0  0  0  0
 29 31  1  0  0  0  0
  4 32  1  6  0  0  0
  8 33  1  6  0  0  0
M  END
>  <Name>
Trandolapril

>  <CAS #>
87679-37-6

>  <human Clearance (mL/min/kg)>
12.5

>  <Primary mechanism (metabolic, biliary or renal)>
metabolic

>  <seqId>
937.0

>  <Code (mechanism and clearance degree index)>
M1

>  < Five M1 and R1 test groups>
M1_4

>  <formamide>
0

>  <prodrug phosphates>
0

>  <VolSurf_V>
964.0

>  <VolSurf_S>
616.62

>  <VolSurf_R>
1.56336

>  <VolSurf_G>
1.49356

>  <VolSurf_IW1>
0.109454

>  <VolSurf_IW2>
0.325734

>  <VolSurf_IW3>
0.691197

>  <VolSurf_IW4>
0.972169

>  <VolSurf_ID1>
0.0413662

>  <VolSurf_ID2>
0.125102

>  <VolSurf_ID3>
0.245427

>  <VolSurf_ID4>
0.303817

>  <VolSurf_HL1>
5.10917

>  <VolSurf_HL2>
7.34737

>  <VolSurf_A>
7.56785

>  <VolSurf_CP>
0.199195

>  <VolSurf_POL>
45.378

>  <VolSurf_MW>
429.529

>  <VolSurf_FLEX>
3.24112

>  <VolSurf_FLEX_RB>
0.249317

>  <VolSurf_NCC>
1.0

>  <VolSurf_LOGP n-Oct>
3.246

>  <VolSurf_LOGP c-Hex>
1.902

>  <VolSurf_PSA>
104.53

>  <VolSurf_HSA>
512.09

>  <VolSurf_PSAR>
0.169521

>  <VolSurf_PHSAR>
0.204124

>  <VolSurf_LgD5>
0.858162

>  <VolSurf_LgD6>
0.490303

>  <VolSurf_LgD7>
-0.0421524

>  <VolSurf_LgD7.5>
-0.173103

>  <VolSurf_LgD8>
-0.226502

>  <VolSurf_LgD9>
-0.251159

>  <VolSurf_LgD10>
-0.253715

>  <VolSurf_AUS7.4>
0.0

>  <VolSurf_%FU4>
0.0

>  <VolSurf_%FU5>
0.0

>  <VolSurf_%FU6>
0.0

>  <VolSurf_%FU7>
0.0

>  <VolSurf_%FU8>
0.0

>  <VolSurf_%FU9>
0.0

>  <VolSurf_%FU10>
0.0

>  <ID>
446

>  <MOKAID>
447

>  <Clearance Route>
possible billary

>  <PC1>
0.048385199999999996

>  <PC2>
-0.837976

$$$$
Tranexamic acid
  -OEChem-08301611272D

 11 11  0     1  0  0  0  0  0999 V2000
    2.5995    1.4976    0.0000 N   0  0  0  0  0  0  0  0  0  0  0  0
    1.7350    2.0001    0.0000 C   0  0  0  0  0  0  0  0  0  0  0  0
    0.8675    1.5027    0.0000 C   0  0  2  0  0  0  0  0  0  0  0  0
    0.8675    0.4975    0.0000 C   0  0  0  0  0  0  0  0  0  0  0  0
    0.0000    0.0000    0.0000 C   0  0  0  0  0  0  0  0  0  0  0  0
   -0.8675    0.4975    0.0000 C   0  0  2  0  0  0  0  0  0  0  0  0
   -0.8675    1.5027    0.0000 C   0  0  0  0  0  0  0  0  0  0  0  0
    0.0000    2.0104    0.0000 C   0  0  0  0  0  0  0  0  0  0  0  0
   -1.7328   -0.0038    0.0000 C   0  0  0  0  0  0  0  0  0  0  0  0
   -2.5995    0.4950    0.0000 O   0  0  0  0  0  0  0  0  0  0  0  0
   -1.7313   -1.0038    0.0000 O   0  0  0  0  0  0  0  0  0  0  0  0
  1  2  1  0  0  0  0
  3  2  1  6  0  0  0
  3  8  1  0  0  0  0
  3  4  1  0  0  0  0
  4  5  1  0  0  0  0
  5  6  1  0  0  0  0
  6  7  1  0  0  0  0
  7  8  1  0  0  0  0
  6  9  1  1  0  0  0
  9 10  2  0  0  0  0
  9 11  1  0  0  0  0
M  END
>  <Name>
Tranexamic acid

>  <CAS #>
1197-18-8

>  <human Clearance (mL/min/kg)>
2.4

>  <Primary mechanism (metabolic, biliary or renal)>
renal

>  <seqId>
938.0

>  <Code (mechanism and clearance degree index)>
R1

>  < Five M1 and R1 test groups>
R1_3

>  <formamide>
0

>  <prodrug phosphates>
0

>  <VolSurf_V>
382.875

>  <VolSurf_S>
286.332

>  <VolSurf_R>
1.33717

>  <VolSurf_G>
1.18993

>  <VolSurf_IW1>
0.0850743

>  <VolSurf_IW2>
0.186504

>  <VolSurf_IW3>
0.496157

>  <VolSurf_IW4>
1.42523

>  <VolSurf_ID1>
0.0942336

>  <VolSurf_ID2>
0.210121

>  <VolSurf_ID3>
0.39487

>  <VolSurf_ID4>
0.0

>  <VolSurf_HL1>
23.6

>  <VolSurf_HL2>
71.4286

>  <VolSurf_A>
4.59769

>  <VolSurf_CP>
0.0513146

>  <VolSurf_POL>
18.07

>  <VolSurf_MW>
157.21

>  <VolSurf_FLEX>
0.528066

>  <VolSurf_FLEX_RB>
0.176022

>  <VolSurf_NCC>
2.0

>  <VolSurf_LOGP n-Oct>
0.342

>  <VolSurf_LOGP c-Hex>
-1.467

>  <VolSurf_PSA>
80.73

>  <VolSurf_HSA>
205.602

>  <VolSurf_PSAR>
0.281946

>  <VolSurf_PHSAR>
0.392652

>  <VolSurf_LgD5>
-1.97608

>  <VolSurf_LgD6>
-1.92356

>  <VolSurf_LgD7>
-1.91774

>  <VolSurf_LgD7.5>
-1.91746

>  <VolSurf_LgD8>
-1.91785

>  <VolSurf_LgD9>
-1.92476

>  <VolSurf_LgD10>
-1.98796

>  <VolSurf_AUS7.4>
0.0

>  <VolSurf_%FU4>
0.0

>  <VolSurf_%FU5>
0.0

>  <VolSurf_%FU6>
0.0

>  <VolSurf_%FU7>
0.0

>  <VolSurf_%FU8>
0.0

>  <VolSurf_%FU9>
0.0

>  <VolSurf_%FU10>
0.0

>  <ID>
447

>  <MOKAID>
448

>  <Clearance Route>
uncertain

>  <PC1>
-1.5953

>  <PC2>
4.10907

$$$$
Triamterene
  -OEChem-08301611272D

 19 21  0     0  0  0  0  0  0999 V2000
    4.3394    1.5081    0.0000 N   0  0  0  0  0  0  0  0  0  0  0  0
    3.4735    1.0079    0.0000 C   0  0  0  0  0  0  0  0  0  0  0  0
    3.4748    0.0022    0.0000 N   0  0  0  0  0  0  0  0  0  0  0  0
    2.6038   -0.4989    0.0000 C   0  0  0  0  0  0  0  0  0  0  0  0
    2.6037   -1.4989    0.0000 N   0  0  0  0  0  0  0  0  0  0  0  0
    1.7371   -0.0000    0.0000 C   0  0  0  0  0  0  0  0  0  0  0  0
    0.8679   -0.4978    0.0000 N   0  0  0  0  0  0  0  0  0  0  0  0
    0.0000    0.0000    0.0000 C   0  0  0  0  0  0  0  0  0  0  0  0
   -0.0000    1.0057    0.0000 C   0  0  0  0  0  0  0  0  0  0  0  0
   -0.8675    1.5032    0.0000 N   0  0  0  0  0  0  0  0  0  0  0  0
    0.8679    1.5135    0.0000 N   0  0  0  0  0  0  0  0  0  0  0  0
    1.7358    1.0057    0.0000 C   0  0  0  0  0  0  0  0  0  0  0  0
    2.6012    1.5124    0.0000 N   0  0  0  0  0  0  0  0  0  0  0  0
   -0.8653   -0.5012    0.0000 C   0  0  0  0  0  0  0  0  0  0  0  0
   -0.8609   -1.5064    0.0000 C   0  0  0  0  0  0  0  0  0  0  0  0
   -1.7262   -2.0077    0.0000 C   0  0  0  0  0  0  0  0  0  0  0  0
   -2.5959   -1.5140    0.0000 C   0  0  0  0  0  0  0  0  0  0  0  0
   -2.6003   -0.5088    0.0000 C   0  0  0  0  0  0  0  0  0  0  0  0
   -1.7350    0.0027    0.0000 C   0  0  0  0  0  0  0  0  0  0  0  0
  1  2  1  0  0  0  0
  2 13  2  0  0  0  0
  2  3  1  0  0  0  0
  3  4  2  0  0  0  0
  4  5  1  0  0  0  0
  4  6  1  0  0  0  0
  6 12  2  0  0  0  0
  6  7  1  0  0  0  0
  7  8  2  0  0  0  0
  8  9  1  0  0  0  0
  9 10  1  0  0  0  0
  9 11  2  0  0  0  0
 11 12  1  0  0  0  0
 12 13  1  0  0  0  0
  8 14  1  0  0  0  0
 14 19  2  0  0  0  0
 14 15  1  0  0  0  0
 15 16  2  0  0  0  0
 16 17  1  0  0  0  0
 17 18  2  0  0  0  0
 18 19  1  0  0  0  0
M  END
>  <Name>
Triamterene

>  <CAS #>
396-01-0

>  <human Clearance (mL/min/kg)>
63.0

>  <Primary mechanism (metabolic, biliary or renal)>
metabolic

>  <seqId>
943.0

>  <Code (mechanism and clearance degree index)>
M1

>  < Five M1 and R1 test groups>
M1_1

>  <formamide>
0

>  <prodrug phosphates>
0

>  <VolSurf_V>
531.5

>  <VolSurf_S>
376.242

>  <VolSurf_R>
1.41266

>  <VolSurf_G>
1.29113

>  <VolSurf_IW1>
0.137191

>  <VolSurf_IW2>
0.339683

>  <VolSurf_IW3>
0.815336

>  <VolSurf_IW4>
1.31151

>  <VolSurf_ID1>
0.059076

>  <VolSurf_ID2>
0.020858

>  <VolSurf_ID3>
0.0565839

>  <VolSurf_ID4>
0.107263

>  <VolSurf_HL1>
1.76975

>  <VolSurf_HL2>
1.18155

>  <VolSurf_A>
3.06464

>  <VolSurf_CP>
7.84582

>  <VolSurf_POL>
27.871

>  <VolSurf_MW>
253.263

>  <VolSurf_FLEX>
0.199183

>  <VolSurf_FLEX_RB>
0.0497957

>  <VolSurf_NCC>
0.0

>  <VolSurf_LOGP n-Oct>
1.129

>  <VolSurf_LOGP c-Hex>
-2.311

>  <VolSurf_PSA>
128.58

>  <VolSurf_HSA>
247.662

>  <VolSurf_PSAR>
0.341748

>  <VolSurf_PHSAR>
0.519176

>  <VolSurf_LgD5>
-0.389328

>  <VolSurf_LgD6>
0.618012

>  <VolSurf_LgD7>
1.04453

>  <VolSurf_LgD7.5>
1.10056

>  <VolSurf_LgD8>
1.11981

>  <VolSurf_LgD9>
1.12807

>  <VolSurf_LgD10>
1.12891

>  <VolSurf_AUS7.4>
1.96776

>  <VolSurf_%FU4>
0.0769217

>  <VolSurf_%FU5>
3.01107

>  <VolSurf_%FU6>
30.8119

>  <VolSurf_%FU7>
82.3184

>  <VolSurf_%FU8>
97.9066

>  <VolSurf_%FU9>
99.7867

>  <VolSurf_%FU10>
99.9786

>  <ID>
448

>  <MOKAID>
449

>  <Clearance Route>
metabolic

>  <PC1>
1.778

>  <PC2>
2.58575

$$$$
Triazolam
  -OEChem-08301611272D

 23 26  0     0  0  0  0  0  0999 V2000
    0.8252    3.4285    0.0000 C   0  0  0  0  0  0  0  0  0  0  0  0
    1.7770    3.1217    0.0000 C   0  0  0  0  0  0  0  0  0  0  0  0
    2.5897    3.7152    0.0000 N   0  0  0  0  0  0  0  0  0  0  0  0
    3.4052    3.1254    0.0000 N   0  0  0  0  0  0  0  0  0  0  0  0
    3.0964    2.1676    0.0000 C   0  0  0  0  0  0  0  0  0  0  0  0
    3.7309    1.3795    0.0000 C   0  0  0  0  0  0  0  0  0  0  0  0
    3.5149    0.3951    0.0000 N   0  0  0  0  0  0  0  0  0  0  0  0
    2.6074   -0.0433    0.0000 C   0  0  0  0  0  0  0  0  0  0  0  0
    2.6118   -1.0433    0.0000 C   0  0  0  0  0  0  0  0  0  0  0  0
    1.7487   -1.5484    0.0000 C   0  0  0  0  0  0  0  0  0  0  0  0
    1.7487   -2.5484    0.0000 C   0  0  0  0  0  0  0  0  0  0  0  0
    2.6207   -3.0484    0.0000 C   0  0  0  0  0  0  0  0  0  0  0  0
    3.4927   -2.5484    0.0000 C   0  0  0  0  0  0  0  0  0  0  0  0
    3.4838   -1.5433    0.0000 C   0  0  0  0  0  0  0  0  0  0  0  0
    4.3469   -1.0382    0.0000 Cl  0  0  0  0  0  0  0  0  0  0  0  0
    1.6936    0.3883    0.0000 C   0  0  0  0  0  0  0  0  0  0  0  0
    0.9625   -0.2980    0.0000 C   0  0  0  0  0  0  0  0  0  0  0  0
    0.0000    0.0000    0.0000 C   0  0  0  0  0  0  0  0  0  0  0  0
   -0.7330   -0.6802    0.0000 Cl  0  0  0  0  0  0  0  0  0  0  0  0
   -0.2249    0.9801    0.0000 C   0  0  0  0  0  0  0  0  0  0  0  0
    0.5130    1.6623    0.0000 C   0  0  0  0  0  0  0  0  0  0  0  0
    1.4689    1.3684    0.0000 C   0  0  0  0  0  0  0  0  0  0  0  0
    2.0900    2.1653    0.0000 N   0  0  0  0  0  0  0  0  0  0  0  0
  1  2  1  0  0  0  0
  2 23  1  0  0  0  0
  2  3  2  0  0  0  0
  3  4  1  0  0  0  0
  4  5  2  0  0  0  0
  5 23  1  0  0  0  0
  5  6  1  0  0  0  0
  6  7  1  0  0  0  0
  7  8  2  0  0  0  0
  8  9  1  0  0  0  0
  9 14  2  0  0  0  0
  9 10  1  0  0  0  0
 10 11  2  0  0  0  0
 11 12  1  0  0  0  0
 12 13  2  0  0  0  0
 13 14  1  0  0  0  0
 14 15  1  0  0  0  0
  8 16  1  0  0  0  0
 16 22  2  0  0  0  0
 16 17  1  0  0  0  0
 17 18  2  0  0  0  0
 18 19  1  0  0  0  0
 18 20  1  0  0  0  0
 20 21  2  0  0  0  0
 21 22  1  0  0  0  0
 22 23  1  0  0  0  0
M  END
>  <Name>
Triazolam

>  <CAS #>
28911-01-5

>  <human Clearance (mL/min/kg)>
3.0

>  <Primary mechanism (metabolic, biliary or renal)>
metabolic

>  <seqId>
945.0

>  <Code (mechanism and clearance degree index)>
M1

>  < Five M1 and R1 test groups>
M1_4

>  <formamide>
0

>  <prodrug phosphates>
0

>  <VolSurf_V>
694.75

>  <VolSurf_S>
470.778

>  <VolSurf_R>
1.47575

>  <VolSurf_G>
1.38251

>  <VolSurf_IW1>
0.103261

>  <VolSurf_IW2>
0.430552

>  <VolSurf_IW3>
1.07727

>  <VolSurf_IW4>
1.47263

>  <VolSurf_ID1>
0.0381753

>  <VolSurf_ID2>
0.0465263

>  <VolSurf_ID3>
0.0567296

>  <VolSurf_ID4>
0.0836248

>  <VolSurf_HL1>
0.564677

>  <VolSurf_HL2>
0.415094

>  <VolSurf_A>
6.2158

>  <VolSurf_CP>
6.35194

>  <VolSurf_POL>
35.856

>  <VolSurf_MW>
343.209

>  <VolSurf_FLEX>
0.382534

>  <VolSurf_FLEX_RB>
0.191267

>  <VolSurf_NCC>
0.0

>  <VolSurf_LOGP n-Oct>
2.572

>  <VolSurf_LOGP c-Hex>
4.846

>  <VolSurf_PSA>
40.9

>  <VolSurf_HSA>
429.878

>  <VolSurf_PSAR>
0.0868775

>  <VolSurf_PHSAR>
0.0951434

>  <VolSurf_LgD5>
2.21829

>  <VolSurf_LgD6>
2.52248

>  <VolSurf_LgD7>
2.56681

>  <VolSurf_LgD7.5>
2.57035

>  <VolSurf_LgD8>
2.57148

>  <VolSurf_LgD9>
2.57195

>  <VolSurf_LgD10>
2.57199

>  <VolSurf_AUS7.4>
2.0

>  <VolSurf_%FU4>
5.36445

>  <VolSurf_%FU5>
44.2716

>  <VolSurf_%FU6>
89.22

>  <VolSurf_%FU7>
98.8111

>  <VolSurf_%FU8>
99.8799

>  <VolSurf_%FU9>
99.988

>  <VolSurf_%FU10>
99.9988

>  <ID>
449

>  <MOKAID>
450

>  <Clearance Route>
metabolic

>  <PC1>
4.96629

>  <PC2>
1.12589

$$$$
Trimethoprim
  -OEChem-08301611272D

 21 22  0     0  0  0  0  0  0999 V2000
   -5.1992   -0.0178    0.0000 C   0  0  0  0  0  0  0  0  0  0  0  0
   -4.3310   -0.5140    0.0000 O   0  0  0  0  0  0  0  0  0  0  0  0
   -3.4672   -0.0102    0.0000 C   0  0  0  0  0  0  0  0  0  0  0  0
   -2.6004   -0.5089    0.0000 C   0  0  0  0  0  0  0  0  0  0  0  0
   -1.7320   -0.0025    0.0000 C   0  0  0  0  0  0  0  0  0  0  0  0
   -0.8653   -0.5013    0.0000 C   0  0  0  0  0  0  0  0  0  0  0  0
    0.0000    0.0000    0.0000 C   0  0  0  0  0  0  0  0  0  0  0  0
   -0.0000    1.0052    0.0000 C   0  0  0  0  0  0  0  0  0  0  0  0
    0.8675    1.5129    0.0000 N   0  0  0  0  0  0  0  0  0  0  0  0
    1.7350    1.0052    0.0000 C   0  0  0  0  0  0  0  0  0  0  0  0
    2.6025    1.5026    0.0000 N   0  0  0  0  0  0  0  0  0  0  0  0
    1.7350    0.0000    0.0000 N   0  0  0  0  0  0  0  0  0  0  0  0
    0.8675   -0.4975    0.0000 C   0  0  0  0  0  0  0  0  0  0  0  0
    0.8675   -1.4975    0.0000 N   0  0  0  0  0  0  0  0  0  0  0  0
   -1.7305    1.0026    0.0000 C   0  0  0  0  0  0  0  0  0  0  0  0
   -2.6062    1.4962    0.0000 C   0  0  0  0  0  0  0  0  0  0  0  0
   -2.6135    2.4962    0.0000 O   0  0  0  0  0  0  0  0  0  0  0  0
   -3.4832    2.9898    0.0000 C   0  0  0  0  0  0  0  0  0  0  0  0
   -3.4745    0.9898    0.0000 C   0  0  0  0  0  0  0  0  0  0  0  0
   -4.3434    1.4847    0.0000 O   0  0  0  0  0  0  0  0  0  0  0  0
   -5.2065    0.9796    0.0000 C   0  0  0  0  0  0  0  0  0  0  0  0
  1  2  1  0  0  0  0
  2  3  1  0  0  0  0
  3 19  2  0  0  0  0
  3  4  1  0  0  0  0
  4  5  2  0  0  0  0
  5  6  1  0  0  0  0
  6  7  1  0  0  0  0
  7 13  2  0  0  0  0
  7  8  1  0  0  0  0
  8  9  2  0  0  0  0
  9 10  1  0  0  0  0
 10 11  1  0  0  0  0
 10 12  2  0  0  0  0
 12 13  1  0  0  0  0
 13 14  1  0  0  0  0
  5 15  1  0  0  0  0
 15 16  2  0  0  0  0
 16 17  1  0  0  0  0
 17 18  1  0  0  0  0
 16 19  1  0  0  0  0
 19 20  1  0  0  0  0
 20 21  1  0  0  0  0
M  END
>  <Name>
Trimethoprim

>  <CAS #>
738-70-5

>  <human Clearance (mL/min/kg)>
2.1

>  <Primary mechanism (metabolic, biliary or renal)>
renal

>  <seqId>
947.0

>  <Code (mechanism and clearance degree index)>
R1

>  < Five M1 and R1 test groups>
R1_2

>  <formamide>
0

>  <prodrug phosphates>
0

>  <VolSurf_V>
642.0

>  <VolSurf_S>
449.15

>  <VolSurf_R>
1.42937

>  <VolSurf_G>
1.3942

>  <VolSurf_IW1>
0.114503

>  <VolSurf_IW2>
0.275665

>  <VolSurf_IW3>
0.899431

>  <VolSurf_IW4>
1.53435

>  <VolSurf_ID1>
0.0599837

>  <VolSurf_ID2>
0.09553

>  <VolSurf_ID3>
0.120362

>  <VolSurf_ID4>
0.17715

>  <VolSurf_HL1>
1.48649

>  <VolSurf_HL2>
1.01423

>  <VolSurf_A>
3.3781

>  <VolSurf_CP>
1.41919

>  <VolSurf_POL>
30.881

>  <VolSurf_MW>
290.318

>  <VolSurf_FLEX>
0.81949

>  <VolSurf_FLEX_RB>
0.081949

>  <VolSurf_NCC>
0.0

>  <VolSurf_LOGP n-Oct>
1.07

>  <VolSurf_LOGP c-Hex>
-0.977

>  <VolSurf_PSA>
111.59

>  <VolSurf_HSA>
337.56

>  <VolSurf_PSAR>
0.248447

>  <VolSurf_PHSAR>
0.330578

>  <VolSurf_LgD5>
-0.871353

>  <VolSurf_LgD6>
0.0763907

>  <VolSurf_LgD7>
0.794084

>  <VolSurf_LgD7.5>
0.962537

>  <VolSurf_LgD8>
1.03306

>  <VolSurf_LgD9>
1.06616

>  <VolSurf_LgD10>
1.06961

>  <VolSurf_AUS7.4>
1.87261

>  <VolSurf_%FU4>
0.112385

>  <VolSurf_%FU5>
1.11331

>  <VolSurf_%FU6>
10.1198

>  <VolSurf_%FU7>
52.9618

>  <VolSurf_%FU8>
91.8429

>  <VolSurf_%FU9>
99.1197

>  <VolSurf_%FU10>
99.9113

>  <ID>
450

>  <MOKAID>
451

>  <Clearance Route>
metabolic

>  <PC1>
1.5722399999999999

>  <PC2>
1.9462700000000002

$$$$
Trimetrexate
  -OEChem-08301611272D

 27 29  0     0  0  0  0  0  0999 V2000
   -3.4494   -5.0129    0.0000 C   0  0  0  0  0  0  0  0  0  0  0  0
   -2.5856   -4.5090    0.0000 O   0  0  0  0  0  0  0  0  0  0  0  0
   -2.5900   -3.5090    0.0000 C   0  0  0  0  0  0  0  0  0  0  0  0
   -1.7247   -3.0077    0.0000 C   0  0  0  0  0  0  0  0  0  0  0  0
   -1.7291   -2.0025    0.0000 C   0  0  0  0  0  0  0  0  0  0  0  0
   -0.8638   -1.5013    0.0000 N   0  0  0  0  0  0  0  0  0  0  0  0
   -0.8653   -0.5013    0.0000 C   0  0  0  0  0  0  0  0  0  0  0  0
    0.0000    0.0000    0.0000 C   0  0  0  0  0  0  0  0  0  0  0  0
   -0.0000    1.0056    0.0000 C   0  0  0  0  0  0  0  0  0  0  0  0
    0.8679    1.5135    0.0000 C   0  0  0  0  0  0  0  0  0  0  0  0
    1.7358    1.0056    0.0000 C   0  0  0  0  0  0  0  0  0  0  0  0
    2.6012    1.5123    0.0000 N   0  0  0  0  0  0  0  0  0  0  0  0
    3.4735    1.0079    0.0000 C   0  0  0  0  0  0  0  0  0  0  0  0
    4.3394    1.5082    0.0000 N   0  0  0  0  0  0  0  0  0  0  0  0
    3.4748    0.0023    0.0000 N   0  0  0  0  0  0  0  0  0  0  0  0
    2.6038   -0.4989    0.0000 C   0  0  0  0  0  0  0  0  0  0  0  0
    2.6037   -1.4989    0.0000 N   0  0  0  0  0  0  0  0  0  0  0  0
    1.7371    0.0000    0.0000 C   0  0  0  0  0  0  0  0  0  0  0  0
    0.8679   -0.4977    0.0000 C   0  0  0  0  0  0  0  0  0  0  0  0
    0.8676   -1.4977    0.0000 C   0  0  0  0  0  0  0  0  0  0  0  0
   -2.5989   -1.4987    0.0000 C   0  0  0  0  0  0  0  0  0  0  0  0
   -3.4641   -2.0102    0.0000 C   0  0  0  0  0  0  0  0  0  0  0  0
   -4.3338   -1.5166    0.0000 O   0  0  0  0  0  0  0  0  0  0  0  0
   -5.1961   -2.0229    0.0000 C   0  0  0  0  0  0  0  0  0  0  0  0
   -3.4597   -3.0154    0.0000 C   0  0  0  0  0  0  0  0  0  0  0  0
   -4.3227   -3.5205    0.0000 O   0  0  0  0  0  0  0  0  0  0  0  0
   -4.3169   -4.5204    0.0000 C   0  0  0  0  0  0  0  0  0  0  0  0
  1  2  1  0  0  0  0
  2  3  1  0  0  0  0
  3 25  2  0  0  0  0
  3  4  1  0  0  0  0
  4  5  2  0  0  0  0
  5  6  1  0  0  0  0
  6  7  1  0  0  0  0
  7  8  1  0  0  0  0
  8 19  2  0  0  0  0
  8  9  1  0  0  0  0
  9 10  2  0  0  0  0
 10 11  1  0  0  0  0
 11 18  2  0  0  0  0
 11 12  1  0  0  0  0
 12 13  2  0  0  0  0
 13 14  1  0  0  0  0
 13 15  1  0  0  0  0
 15 16  2  0  0  0  0
 16 17  1  0  0  0  0
 16 18  1  0  0  0  0
 18 19  1  0  0  0  0
 19 20  1  0  0  0  0
  5 21  1  0  0  0  0
 21 22  2  0  0  0  0
 22 23  1  0  0  0  0
 23 24  1  0  0  0  0
 22 25  1  0  0  0  0
 25 26  1  0  0  0  0
 26 27  1  0  0  0  0
M  END
>  <Name>
Trimetrexate

>  <CAS #>
52128-35-5

>  <human Clearance (mL/min/kg)>
0.77

>  <Primary mechanism (metabolic, biliary or renal)>
metabolic

>  <seqId>
948.0

>  <Code (mechanism and clearance degree index)>
M1

>  < Five M1 and R1 test groups>
M1_3

>  <formamide>
0

>  <prodrug phosphates>
0

>  <VolSurf_V>
801.125

>  <VolSurf_S>
550.877

>  <VolSurf_R>
1.45427

>  <VolSurf_G>
1.5176

>  <VolSurf_IW1>
0.0914083

>  <VolSurf_IW2>
0.239707

>  <VolSurf_IW3>
0.96397

>  <VolSurf_IW4>
1.74478

>  <VolSurf_ID1>
0.0431498

>  <VolSurf_ID2>
0.071693

>  <VolSurf_ID3>
0.113245

>  <VolSurf_ID4>
0.17735

>  <VolSurf_HL1>
1.0378

>  <VolSurf_HL2>
0.674757

>  <VolSurf_A>
4.25187

>  <VolSurf_CP>
2.18386

>  <VolSurf_POL>
40.375

>  <VolSurf_MW>
369.417

>  <VolSurf_FLEX>
2.25448

>  <VolSurf_FLEX_RB>
0.187874

>  <VolSurf_NCC>
0.0

>  <VolSurf_LOGP n-Oct>
2.395

>  <VolSurf_LOGP c-Hex>
-0.252

>  <VolSurf_PSA>
123.62

>  <VolSurf_HSA>
427.257

>  <VolSurf_PSAR>
0.224406

>  <VolSurf_PHSAR>
0.289334

>  <VolSurf_LgD5>
0.901433

>  <VolSurf_LgD6>
1.78844

>  <VolSurf_LgD7>
2.27958

>  <VolSurf_LgD7.5>
2.35508

>  <VolSurf_LgD8>
2.38197

>  <VolSurf_LgD9>
2.39368

>  <VolSurf_LgD10>
2.39487

>  <VolSurf_AUS7.4>
1.95369

>  <VolSurf_%FU4>
0.327038

>  <VolSurf_%FU5>
3.17885

>  <VolSurf_%FU6>
24.7183

>  <VolSurf_%FU7>
76.6544

>  <VolSurf_%FU8>
97.0444

>  <VolSurf_%FU9>
99.6964

>  <VolSurf_%FU10>
99.9696

>  <ID>
451

>  <MOKAID>
452

>  <Clearance Route>
metabolic

>  <PC1>
2.77834

>  <PC2>
0.22304000000000002

$$$$
Trospectomycin
  -OEChem-08301611272D

 29 31  0     1  0  0  0  0  0999 V2000
   -1.7407    4.0006    0.0000 C   0  0  0  0  0  0  0  0  0  0  0  0
   -1.7378    3.0006    0.0000 C   0  0  0  0  0  0  0  0  0  0  0  0
   -0.8704    2.5031    0.0000 C   0  0  0  0  0  0  0  0  0  0  0  0
   -0.8675    1.5031    0.0000 C   0  0  0  0  0  0  0  0  0  0  0  0
   -0.0000    1.0056    0.0000 C   0  0  2  0  0  0  0  0  0  0  0  0
   -0.0000   -0.0000    0.0000 C   0  0  0  0  0  0  0  0  0  0  0  0
    0.8679   -0.4978    0.0000 C   0  0  0  0  0  0  0  0  0  0  0  0
    0.8676   -1.4978    0.0000 O   0  0  0  0  0  0  0  0  0  0  0  0
    1.7371   -0.0000    0.0000 C   0  0  2  0  0  0  0  0  0  0  0  0
    1.7360   -1.0000    0.0000 O   0  0  0  0  0  0  0  0  0  0  0  0
    2.6038   -0.4989    0.0000 O   0  0  0  0  0  0  0  0  0  0  0  0
    3.4738   -0.0003    0.0000 C   0  0  2  0  0  0  0  0  0  0  0  0
    4.3422   -0.5013    0.0000 C   0  0  1  0  0  0  0  0  0  0  0  0
    4.3412   -1.5013    0.0000 N   0  0  0  0  0  0  0  0  0  0  0  0
    5.2067   -2.0022    0.0000 C   0  0  0  0  0  0  0  0  0  0  0  0
    5.2158    0.0003    0.0000 C   0  0  1  0  0  0  0  0  0  0  0  0
    6.0813   -0.5006    0.0000 O   0  0  0  0  0  0  0  0  0  0  0  0
    5.2154    1.0084    0.0000 C   0  0  1  0  0  0  0  0  0  0  0  0
    6.0817    1.5078    0.0000 N   0  0  0  0  0  0  0  0  0  0  0  0
    6.0824    2.5078    0.0000 C   0  0  0  0  0  0  0  0  0  0  0  0
    4.3415    1.5149    0.0000 C   0  0  2  0  0  0  0  0  0  0  0  0
    4.3398    2.5149    0.0000 O   0  0  0  0  0  0  0  0  0  0  0  0
    3.4735    1.0078    0.0000 C   0  0  1  0  0  0  0  0  0  0  0  0
    2.6012    1.5123    0.0000 O   0  0  0  0  0  0  0  0  0  0  0  0
    1.7358    1.0056    0.0000 C   0  0  2  0  0  0  0  0  0  0  0  0
    0.8679    1.5134    0.0000 O   0  0  0  0  0  0  0  0  0  0  0  0
    3.4724   -1.0003    0.0000 H   0  0  0  0  0  0  0  0  0  0  0  0
    3.4713    2.0078    0.0000 H   0  0  0  0  0  0  0  0  0  0  0  0
    1.7356    2.0056    0.0000 H   0  0  0  0  0  0  0  0  0  0  0  0
  1  2  1  0  0  0  0
  2  3  1  0  0  0  0
  3  4  1  0  0  0  0
  5  4  1  1  0  0  0
  5 26  1  0  0  0  0
  5  6  1  0  0  0  0
  6  7  1  0  0  0  0
  7  8  2  0  0  0  0
  7  9  1  0  0  0  0
  9 25  1  0  0  0  0
  9 10  1  6  0  0  0
  9 11  1  0  0  0  0
 11 12  1  0  0  0  0
 12 23  1  0  0  0  0
 12 13  1  0  0  0  0
 13 14  1  6  0  0  0
 14 15  1  0  0  0  0
 13 16  1  0  0  0  0
 16 17  1  6  0  0  0
 16 18  1  0  0  0  0
 18 19  1  6  0  0  0
 19 20  1  0  0  0  0
 18 21  1  0  0  0  0
 21 22  1  1  0  0  0
 21 23  1  0  0  0  0
 23 24  1  0  0  0  0
 24 25  1  0  0  0  0
 25 26  1  0  0  0  0
 12 27  1  6  0  0  0
 23 28  1  1  0  0  0
 25 29  1  6  0  0  0
M  END
>  <Name>
Trospectomycin

>  <CAS #>
88669-04-9

>  <human Clearance (mL/min/kg)>
1.7

>  <Primary mechanism (metabolic, biliary or renal)>
renal

>  <seqId>
951.0

>  <Code (mechanism and clearance degree index)>
R1

>  < Five M1 and R1 test groups>
R1_2

>  <formamide>
0

>  <prodrug phosphates>
0

>  <VolSurf_V>
775.0

>  <VolSurf_S>
525.113

>  <VolSurf_R>
1.47587

>  <VolSurf_G>
1.46

>  <VolSurf_IW1>
0.0445477

>  <VolSurf_IW2>
0.10538

>  <VolSurf_IW3>
0.166655

>  <VolSurf_IW4>
0.268045

>  <VolSurf_ID1>
0.0576079

>  <VolSurf_ID2>
0.189582

>  <VolSurf_ID3>
0.204674

>  <VolSurf_ID4>
0.0

>  <VolSurf_HL1>
19.1045

>  <VolSurf_HL2>
42.5882

>  <VolSurf_A>
6.6248

>  <VolSurf_CP>
0.0398241

>  <VolSurf_POL>
38.889

>  <VolSurf_MW>
375.437

>  <VolSurf_FLEX>
0.911675

>  <VolSurf_FLEX_RB>
0.0828795

>  <VolSurf_NCC>
1.0

>  <VolSurf_LOGP n-Oct>
-1.449

>  <VolSurf_LOGP c-Hex>
-3.151

>  <VolSurf_PSA>
150.96

>  <VolSurf_HSA>
374.153

>  <VolSurf_PSAR>
0.287481

>  <VolSurf_PHSAR>
0.403471

>  <VolSurf_LgD5>
-5.56796

>  <VolSurf_LgD6>
-4.83532

>  <VolSurf_LgD7>
-4.02077

>  <VolSurf_LgD7.5>
-3.54727

>  <VolSurf_LgD8>
-3.0627

>  <VolSurf_LgD9>
-2.15152

>  <VolSurf_LgD10>
-1.5966

>  <VolSurf_AUS7.4>
0.116594

>  <VolSurf_%FU4>
6.39991E-6

>  <VolSurf_%FU5>
5.19031E-4

>  <VolSurf_%FU6>
0.0179565

>  <VolSurf_%FU7>
0.237633

>  <VolSurf_%FU8>
2.40316

>  <VolSurf_%FU9>
19.8117

>  <VolSurf_%FU10>
71.1772

>  <ID>
452

>  <MOKAID>
453

>  <Clearance Route>
renal

>  <PC1>
-3.4074

>  <PC2>
0.482523

$$$$
Troxacitabine
  -OEChem-08301611272D

 15 16  0     1  0  0  0  0  0999 V2000
    0.8675   -1.4975    0.0000 N   0  0  0  0  0  0  0  0  0  0  0  0
    0.8675   -0.4975    0.0000 C   0  0  0  0  0  0  0  0  0  0  0  0
    1.7350    0.0000    0.0000 N   0  0  0  0  0  0  0  0  0  0  0  0
    1.7350    1.0052    0.0000 C   0  0  0  0  0  0  0  0  0  0  0  0
    2.6025    1.5026    0.0000 O   0  0  0  0  0  0  0  0  0  0  0  0
    0.8675    1.5129    0.0000 N   0  0  0  0  0  0  0  0  0  0  0  0
    0.0000    1.0052    0.0000 C   0  0  0  0  0  0  0  0  0  0  0  0
    0.0000    0.0000    0.0000 C   0  0  0  0  0  0  0  0  0  0  0  0
    0.8675    2.5129    0.0000 C   0  0  2  0  0  0  0  0  0  0  0  0
    1.6783    3.0982    0.0000 C   0  0  0  0  0  0  0  0  0  0  0  0
    1.3692    4.0507    0.0000 O   0  0  0  0  0  0  0  0  0  0  0  0
    0.3676    4.0534    0.0000 C   0  0  2  0  0  0  0  0  0  0  0  0
   -0.2188    4.8634    0.0000 C   0  0  0  0  0  0  0  0  0  0  0  0
   -1.2135    4.7606    0.0000 O   0  0  0  0  0  0  0  0  0  0  0  0
    0.0565    3.0984    0.0000 O   0  0  0  0  0  0  0  0  0  0  0  0
  1  2  1  0  0  0  0
  2  8  1  0  0  0  0
  2  3  2  0  0  0  0
  3  4  1  0  0  0  0
  4  5  2  0  0  0  0
  4  6  1  0  0  0  0
  6  7  1  0  0  0  0
  7  8  2  0  0  0  0
  9  6  1  1  0  0  0
  9 15  1  0  0  0  0
  9 10  1  0  0  0  0
 10 11  1  0  0  0  0
 11 12  1  0  0  0  0
 12 13  1  1  0  0  0
 13 14  1  0  0  0  0
 12 15  1  0  0  0  0
M  END
>  <Name>
Troxacitabine

>  <CAS #>
145918-75-8

>  <human Clearance (mL/min/kg)>
2.4

>  <Primary mechanism (metabolic, biliary or renal)>
renal

>  <seqId>
954.0

>  <Code (mechanism and clearance degree index)>
R1

>  < Five M1 and R1 test groups>
R1_4

>  <formamide>
0

>  <prodrug phosphates>
0

>  <VolSurf_V>
435.375

>  <VolSurf_S>
326.636

>  <VolSurf_R>
1.3329

>  <VolSurf_G>
1.27499

>  <VolSurf_IW1>
0.0855129

>  <VolSurf_IW2>
0.167161

>  <VolSurf_IW3>
0.373472

>  <VolSurf_IW4>
1.03538

>  <VolSurf_ID1>
0.129521

>  <VolSurf_ID2>
0.223431

>  <VolSurf_ID3>
0.272862

>  <VolSurf_ID4>
0.323934

>  <VolSurf_HL1>
6.77108

>  <VolSurf_HL2>
4.56098

>  <VolSurf_A>
3.30836

>  <VolSurf_CP>
0.243932

>  <VolSurf_POL>
19.308

>  <VolSurf_MW>
213.191

>  <VolSurf_FLEX>
0.392601

>  <VolSurf_FLEX_RB>
0.0981502

>  <VolSurf_NCC>
0.0

>  <VolSurf_LOGP n-Oct>
-1.907

>  <VolSurf_LOGP c-Hex>
-4.305

>  <VolSurf_PSA>
104.02

>  <VolSurf_HSA>
222.616

>  <VolSurf_PSAR>
0.318458

>  <VolSurf_PHSAR>
0.467261

>  <VolSurf_LgD5>
-1.95734

>  <VolSurf_LgD6>
-1.91231

>  <VolSurf_LgD7>
-1.90753

>  <VolSurf_LgD7.5>
-1.90717

>  <VolSurf_LgD8>
-1.90706

>  <VolSurf_LgD9>
-1.90712

>  <VolSurf_LgD10>
-1.90811

>  <VolSurf_AUS7.4>
2.0

>  <VolSurf_%FU4>
44.8538

>  <VolSurf_%FU5>
89.0514

>  <VolSurf_%FU6>
98.7854

>  <VolSurf_%FU7>
99.8769

>  <VolSurf_%FU8>
99.9852

>  <VolSurf_%FU9>
99.9732

>  <VolSurf_%FU10>
99.7448

>  <ID>
453

>  <MOKAID>
454

>  <Clearance Route>
uncertain

>  <PC1>
-0.365523

>  <PC2>
4.34743

$$$$
Urapidil
  -OEChem-08301611272D

 28 30  0     0  0  0  0  0  0999 V2000
   -1.7367    3.0100    0.0000 C   0  0  0  0  0  0  0  0  0  0  0  0
   -0.8699    2.5113    0.0000 O   0  0  0  0  0  0  0  0  0  0  0  0
   -0.0046    3.0126    0.0000 C   0  0  0  0  0  0  0  0  0  0  0  0
   -0.0047    4.0127    0.0000 C   0  0  0  0  0  0  0  0  0  0  0  0
    0.8585    4.5177    0.0000 C   0  0  0  0  0  0  0  0  0  0  0  0
    1.7305    4.0177    0.0000 C   0  0  0  0  0  0  0  0  0  0  0  0
    1.7394    3.0126    0.0000 C   0  0  0  0  0  0  0  0  0  0  0  0
    0.8674    2.5126    0.0000 C   0  0  0  0  0  0  0  0  0  0  0  0
    0.8674    1.5126    0.0000 N   0  0  0  0  0  0  0  0  0  0  0  0
    0.0000    1.0051    0.0000 C   0  0  0  0  0  0  0  0  0  0  0  0
    0.0000    0.0000    0.0000 C   0  0  0  0  0  0  0  0  0  0  0  0
    0.8674   -0.4976    0.0000 N   0  0  0  0  0  0  0  0  0  0  0  0
    0.8674   -1.4976    0.0000 C   0  0  0  0  0  0  0  0  0  0  0  0
    1.7334   -1.9976    0.0000 C   0  0  0  0  0  0  0  0  0  0  0  0
    1.7334   -2.9976    0.0000 C   0  0  0  0  0  0  0  0  0  0  0  0
    2.5995   -3.4976    0.0000 N   0  0  0  0  0  0  0  0  0  0  0  0
    2.5995   -4.4976    0.0000 C   0  0  0  0  0  0  0  0  0  0  0  0
    1.7274   -4.9976    0.0000 C   0  0  0  0  0  0  0  0  0  0  0  0
    1.7274   -5.9977    0.0000 C   0  0  0  0  0  0  0  0  0  0  0  0
    0.8599   -6.4951    0.0000 O   0  0  0  0  0  0  0  0  0  0  0  0
    2.5905   -6.5027    0.0000 N   0  0  0  0  0  0  0  0  0  0  0  0
    2.5861   -7.5027    0.0000 C   0  0  0  0  0  0  0  0  0  0  0  0
    3.4625   -6.0027    0.0000 C   0  0  0  0  0  0  0  0  0  0  0  0
    4.3256   -6.5078    0.0000 O   0  0  0  0  0  0  0  0  0  0  0  0
    3.4714   -4.9976    0.0000 N   0  0  0  0  0  0  0  0  0  0  0  0
    4.3389   -4.5002    0.0000 C   0  0  0  0  0  0  0  0  0  0  0  0
    1.7348    0.0000    0.0000 C   0  0  0  0  0  0  0  0  0  0  0  0
    1.7348    1.0051    0.0000 C   0  0  0  0  0  0  0  0  0  0  0  0
  1  2  1  0  0  0  0
  2  3  1  0  0  0  0
  3  8  2  0  0  0  0
  3  4  1  0  0  0  0
  4  5  2  0  0  0  0
  5  6  1  0  0  0  0
  6  7  2  0  0  0  0
  7  8  1  0  0  0  0
  8  9  1  0  0  0  0
  9 28  1  0  0  0  0
  9 10  1  0  0  0  0
 10 11  1  0  0  0  0
 11 12  1  0  0  0  0
 12 13  1  0  0  0  0
 13 14  1  0  0  0  0
 14 15  1  0  0  0  0
 15 16  1  0  0  0  0
 16 17  1  0  0  0  0
 17 25  1  0  0  0  0
 17 18  2  0  0  0  0
 18 19  1  0  0  0  0
 19 20  2  0  0  0  0
 19 21  1  0  0  0  0
 21 22  1  0  0  0  0
 21 23  1  0  0  0  0
 23 24  2  0  0  0  0
 23 25  1  0  0  0  0
 25 26  1  0  0  0  0
 12 27  1  0  0  0  0
 27 28  1  0  0  0  0
M  END
>  <Name>
Urapidil

>  <CAS #>
34661-75-1

>  <human Clearance (mL/min/kg)>
3.1

>  <Primary mechanism (metabolic, biliary or renal)>
metabolic

>  <seqId>
958.0

>  <Code (mechanism and clearance degree index)>
M1

>  < Five M1 and R1 test groups>
M1_5

>  <formamide>
0

>  <prodrug phosphates>
0

>  <VolSurf_V>
898.625

>  <VolSurf_S>
616.495

>  <VolSurf_R>
1.45764

>  <VolSurf_G>
1.60173

>  <VolSurf_IW1>
0.107609

>  <VolSurf_IW2>
0.383145

>  <VolSurf_IW3>
0.995062

>  <VolSurf_IW4>
1.47371

>  <VolSurf_ID1>
0.0430185

>  <VolSurf_ID2>
0.0130083

>  <VolSurf_ID3>
0.0273857

>  <VolSurf_ID4>
0.0739248

>  <VolSurf_HL1>
1.05863

>  <VolSurf_HL2>
0.726841

>  <VolSurf_A>
6.8051

>  <VolSurf_CP>
10.218

>  <VolSurf_POL>
43.793

>  <VolSurf_MW>
388.484

>  <VolSurf_FLEX>
2.89625

>  <VolSurf_FLEX_RB>
0.289625

>  <VolSurf_NCC>
1.0

>  <VolSurf_LOGP n-Oct>
1.759

>  <VolSurf_LOGP c-Hex>
-1.033

>  <VolSurf_PSA>
78.04

>  <VolSurf_HSA>
538.455

>  <VolSurf_PSAR>
0.126587

>  <VolSurf_PHSAR>
0.144933

>  <VolSurf_LgD5>
-1.04464

>  <VolSurf_LgD6>
-0.146039

>  <VolSurf_LgD7>
0.798102

>  <VolSurf_LgD7.5>
1.20526

>  <VolSurf_LgD8>
1.49989

>  <VolSurf_LgD9>
1.72493

>  <VolSurf_LgD10>
1.75547

>  <VolSurf_AUS7.4>
1.38429

>  <VolSurf_%FU4>
0.0121617

>  <VolSurf_%FU5>
0.122239

>  <VolSurf_%FU6>
1.20983

>  <VolSurf_%FU7>
10.911

>  <VolSurf_%FU8>
55.0508

>  <VolSurf_%FU9>
92.4513

>  <VolSurf_%FU10>
99.1901

>  <ID>
454

>  <MOKAID>
455

>  <Clearance Route>
metabolic

>  <PC1>
2.17429

>  <PC2>
-0.660101

$$$$
Valdecoxib
  -OEChem-08301611272D

 22 24  0     0  0  0  0  0  0999 V2000
    0.5008    1.5428    0.0000 O   0  0  0  0  0  0  0  0  0  0  0  0
    1.3133    0.9519    0.0000 N   0  0  0  0  0  0  0  0  0  0  0  0
    1.0015    0.0000    0.0000 C   0  0  0  0  0  0  0  0  0  0  0  0
    0.0000    0.0000    0.0000 C   0  0  0  0  0  0  0  0  0  0  0  0
   -0.3065    0.9519    0.0000 C   0  0  0  0  0  0  0  0  0  0  0  0
   -1.2577    1.2605    0.0000 C   0  0  0  0  0  0  0  0  0  0  0  0
   -0.5889   -0.8082    0.0000 C   0  0  0  0  0  0  0  0  0  0  0  0
   -0.1785   -1.7259    0.0000 C   0  0  0  0  0  0  0  0  0  0  0  0
   -0.7674   -2.5342    0.0000 C   0  0  0  0  0  0  0  0  0  0  0  0
   -1.7624   -2.4341    0.0000 C   0  0  0  0  0  0  0  0  0  0  0  0
   -2.1727   -1.5165    0.0000 C   0  0  0  0  0  0  0  0  0  0  0  0
   -1.5880   -0.6989    0.0000 C   0  0  0  0  0  0  0  0  0  0  0  0
   -2.3477   -3.2449    0.0000 S   0  0  0  0  0  0  0  0  0  0  0  0
   -1.5368   -3.8302    0.0000 O   0  0  0  0  0  0  0  0  0  0  0  0
   -3.1585   -2.6597    0.0000 O   0  0  0  0  0  0  0  0  0  0  0  0
   -2.9330   -4.0558    0.0000 N   0  0  0  0  0  0  0  0  0  0  0  0
    1.5883   -0.8097    0.0000 C   0  0  0  0  0  0  0  0  0  0  0  0
    2.5878   -0.7029    0.0000 C   0  0  0  0  0  0  0  0  0  0  0  0
    3.1747   -1.5126    0.0000 C   0  0  0  0  0  0  0  0  0  0  0  0
    2.7722   -2.4281    0.0000 C   0  0  0  0  0  0  0  0  0  0  0  0
    1.7727   -2.5349    0.0000 C   0  0  0  0  0  0  0  0  0  0  0  0
    1.1757   -1.7263    0.0000 C   0  0  0  0  0  0  0  0  0  0  0  0
  1  5  1  0  0  0  0
  1  2  1  0  0  0  0
  2  3  2  0  0  0  0
  3  4  1  0  0  0  0
  4  5  2  0  0  0  0
  5  6  1  0  0  0  0
  4  7  1  0  0  0  0
  7 12  2  0  0  0  0
  7  8  1  0  0  0  0
  8  9  2  0  0  0  0
  9 10  1  0  0  0  0
 10 11  2  0  0  0  0
 11 12  1  0  0  0  0
 10 13  1  0  0  0  0
 13 14  2  0  0  0  0
 13 15  2  0  0  0  0
 13 16  1  0  0  0  0
  3 17  1  0  0  0  0
 17 22  2  0  0  0  0
 17 18  1  0  0  0  0
 18 19  2  0  0  0  0
 19 20  1  0  0  0  0
 20 21  2  0  0  0  0
 21 22  1  0  0  0  0
M  END
>  <Name>
Valdecoxib

>  <CAS #>
181695-72-7

>  <human Clearance (mL/min/kg)>
1.4

>  <Primary mechanism (metabolic, biliary or renal)>
metabolic

>  <seqId>
960.0

>  <Code (mechanism and clearance degree index)>
M1

>  < Five M1 and R1 test groups>
M1_4

>  <formamide>
0

>  <prodrug phosphates>
0

>  <VolSurf_V>
661.25

>  <VolSurf_S>
459.175

>  <VolSurf_R>
1.44008

>  <VolSurf_G>
1.39918

>  <VolSurf_IW1>
0.0608578

>  <VolSurf_IW2>
0.162503

>  <VolSurf_IW3>
0.29748

>  <VolSurf_IW4>
0.388031

>  <VolSurf_ID1>
0.0699711

>  <VolSurf_ID2>
0.106665

>  <VolSurf_ID3>
0.13251

>  <VolSurf_ID4>
0.145873

>  <VolSurf_HL1>
1.33724

>  <VolSurf_HL2>
0.386207

>  <VolSurf_A>
3.54203

>  <VolSurf_CP>
1.32637

>  <VolSurf_POL>
33.427

>  <VolSurf_MW>
314.359

>  <VolSurf_FLEX>
0.733913

>  <VolSurf_FLEX_RB>
0.146783

>  <VolSurf_NCC>
0.0

>  <VolSurf_LOGP n-Oct>
2.47

>  <VolSurf_LOGP c-Hex>
1.503

>  <VolSurf_PSA>
93.9525

>  <VolSurf_HSA>
365.222

>  <VolSurf_PSAR>
0.204612

>  <VolSurf_PHSAR>
0.257248

>  <VolSurf_LgD5>
2.46999

>  <VolSurf_LgD6>
2.46993

>  <VolSurf_LgD7>
2.46934

>  <VolSurf_LgD7.5>
2.46791

>  <VolSurf_LgD8>
2.46341

>  <VolSurf_LgD9>
2.40821

>  <VolSurf_LgD10>
2.06718

>  <VolSurf_AUS7.4>
2.0

>  <VolSurf_%FU4>
99.9988

>  <VolSurf_%FU5>
99.9984

>  <VolSurf_%FU6>
99.9847

>  <VolSurf_%FU7>
99.8473

>  <VolSurf_%FU8>
98.4936

>  <VolSurf_%FU9>
86.7341

>  <VolSurf_%FU10>
39.5337

>  <ID>
455

>  <MOKAID>
456

>  <Clearance Route>
metabolic

>  <PC1>
3.2469200000000003

>  <PC2>
0.616

$$$$
Valproic Acid
  -OEChem-08301611272D

 10  9  0     0  0  0  0  0  0999 V2000
    0.0000    0.0000    0.0000 C   0  0  0  0  0  0  0  0  0  0  0  0
    1.0000    0.0000    0.0000 C   0  0  0  0  0  0  0  0  0  0  0  0
    1.5000    0.8660    0.0000 C   0  0  0  0  0  0  0  0  0  0  0  0
    2.5000    0.8660    0.0000 C   0  0  0  0  0  0  0  0  0  0  0  0
    3.0000    1.7321    0.0000 C   0  0  0  0  0  0  0  0  0  0  0  0
    2.5000    2.5981    0.0000 C   0  0  0  0  0  0  0  0  0  0  0  0
    3.0000    3.4641    0.0000 C   0  0  0  0  0  0  0  0  0  0  0  0
    3.0000   -0.0000    0.0000 C   0  0  0  0  0  0  0  0  0  0  0  0
    2.5000   -0.8660    0.0000 O   0  0  0  0  0  0  0  0  0  0  0  0
    4.0000   -0.0000    0.0000 O   0  0  0  0  0  0  0  0  0  0  0  0
  1  2  1  0  0  0  0
  2  3  1  0  0  0  0
  3  4  1  0  0  0  0
  4  5  1  0  0  0  0
  5  6  1  0  0  0  0
  6  7  1  0  0  0  0
  4  8  1  0  0  0  0
  8  9  2  0  0  0  0
  8 10  1  0  0  0  0
M  END
>  <Name>
Valproic Acid

>  <CAS #>
99-66-1

>  <human Clearance (mL/min/kg)>
0.16

>  <Primary mechanism (metabolic, biliary or renal)>
metabolic

>  <seqId>
961.0

>  <Code (mechanism and clearance degree index)>
M1

>  < Five M1 and R1 test groups>
M1_4

>  <formamide>
0

>  <prodrug phosphates>
0

>  <VolSurf_V>
426.5

>  <VolSurf_S>
324.233

>  <VolSurf_R>
1.31541

>  <VolSurf_G>
1.28718

>  <VolSurf_IW1>
0.225866

>  <VolSurf_IW2>
0.612355

>  <VolSurf_IW3>
1.11812

>  <VolSurf_IW4>
1.65063

>  <VolSurf_ID1>
0.0594699

>  <VolSurf_ID2>
0.185444

>  <VolSurf_ID3>
0.0

>  <VolSurf_ID4>
0.0

>  <VolSurf_HL1>
8.0125

>  <VolSurf_HL2>
20.2222

>  <VolSurf_A>
6.65081

>  <VolSurf_CP>
0.132856

>  <VolSurf_POL>
15.57

>  <VolSurf_MW>
143.203

>  <VolSurf_FLEX>
1.23836

>  <VolSurf_FLEX_RB>
0.176908

>  <VolSurf_NCC>
1.0

>  <VolSurf_LOGP n-Oct>
2.637

>  <VolSurf_LOGP c-Hex>
-0.322

>  <VolSurf_PSA>
46.12

>  <VolSurf_HSA>
278.113

>  <VolSurf_PSAR>
0.142243

>  <VolSurf_PHSAR>
0.165832

>  <VolSurf_LgD5>
2.31747

>  <VolSurf_LgD6>
1.56429

>  <VolSurf_LgD7>
0.617172

>  <VolSurf_LgD7.5>
0.161713

>  <VolSurf_LgD8>
-0.226714

>  <VolSurf_LgD9>
-0.628461

>  <VolSurf_LgD10>
-0.700239

>  <VolSurf_AUS7.4>
0.0271678

>  <VolSurf_%FU4>
90.1871

>  <VolSurf_%FU5>
47.8914

>  <VolSurf_%FU6>
8.4171

>  <VolSurf_%FU7>
0.9107

>  <VolSurf_%FU8>
0.0918226

>  <VolSurf_%FU9>
0.00918985

>  <VolSurf_%FU10>
9.19061E-4

>  <ID>
456

>  <MOKAID>
457

>  <Clearance Route>
uncertain

>  <PC1>
1.54049

>  <PC2>
4.45556

$$$$
Valsartan
  -OEChem-08301611272D

 32 34  0     1  0  0  0  0  0999 V2000
   -5.9452   -5.3511    0.0000 C   0  0  0  0  0  0  0  0  0  0  0  0
   -4.9949   -5.6625    0.0000 C   0  0  0  0  0  0  0  0  0  0  0  0
   -4.2501   -4.9952    0.0000 C   0  0  0  0  0  0  0  0  0  0  0  0
   -3.2998   -5.3066    0.0000 C   0  0  0  0  0  0  0  0  0  0  0  0
   -2.5550   -4.6393    0.0000 C   0  0  0  0  0  0  0  0  0  0  0  0
   -2.7605   -3.6606    0.0000 O   0  0  0  0  0  0  0  0  0  0  0  0
   -1.6047   -4.9507    0.0000 N   0  0  0  0  0  0  0  0  0  0  0  0
   -0.8599   -4.2834    0.0000 C   0  0  0  0  0  0  0  0  0  0  0  0
   -1.0654   -3.3048    0.0000 C   0  0  0  0  0  0  0  0  0  0  0  0
   -2.0215   -2.9946    0.0000 C   0  0  0  0  0  0  0  0  0  0  0  0
   -2.2271   -2.0159    0.0000 C   0  0  0  0  0  0  0  0  0  0  0  0
   -1.4861   -1.3442    0.0000 C   0  0  0  0  0  0  0  0  0  0  0  0
   -0.5300   -1.6544    0.0000 C   0  0  0  0  0  0  0  0  0  0  0  0
   -0.3148   -2.6363    0.0000 C   0  0  0  0  0  0  0  0  0  0  0  0
   -1.6959   -0.3665    0.0000 C   0  0  0  0  0  0  0  0  0  0  0  0
   -2.6472   -0.0579    0.0000 C   0  0  0  0  0  0  0  0  0  0  0  0
   -2.8612    0.9190    0.0000 C   0  0  0  0  0  0  0  0  0  0  0  0
   -2.1165    1.5941    0.0000 C   0  0  0  0  0  0  0  0  0  0  0  0
   -1.1577    1.2923    0.0000 C   0  0  0  0  0  0  0  0  0  0  0  0
   -0.9512    0.3086    0.0000 C   0  0  0  0  0  0  0  0  0  0  0  0
    0.0000    0.0000    0.0000 C   0  0  0  0  0  0  0  0  0  0  0  0
    0.3065   -0.9518    0.0000 N   0  0  0  0  0  0  0  0  0  0  0  0
    1.3080   -0.9518    0.0000 N   0  0  0  0  0  0  0  0  0  0  0  0
    1.6198   -0.0000    0.0000 N   0  0  0  0  0  0  0  0  0  0  0  0
    0.8073    0.5908    0.0000 N   0  0  0  0  0  0  0  0  0  0  0  0
   -1.3992   -5.9294    0.0000 C   0  0  1  0  0  0  0  0  0  0  0  0
   -0.4490   -6.2407    0.0000 C   0  0  0  0  0  0  0  0  0  0  0  0
    0.2958   -5.5735    0.0000 C   0  0  0  0  0  0  0  0  0  0  0  0
   -0.2435   -7.2194    0.0000 C   0  0  0  0  0  0  0  0  0  0  0  0
   -2.1441   -6.5966    0.0000 C   0  0  0  0  0  0  0  0  0  0  0  0
   -3.0943   -6.2852    0.0000 O   0  0  0  0  0  0  0  0  0  0  0  0
   -1.9386   -7.5753    0.0000 O   0  0  0  0  0  0  0  0  0  0  0  0
  1  2  1  0  0  0  0
  2  3  1  0  0  0  0
  3  4  1  0  0  0  0
  4  5  1  0  0  0  0
  5  6  2  0  0  0  0
  5  7  1  0  0  0  0
  7  8  1  0  0  0  0
  8  9  1  0  0  0  0
  9 14  2  0  0  0  0
  9 10  1  0  0  0  0
 10 11  2  0  0  0  0
 11 12  1  0  0  0  0
 12 13  2  0  0  0  0
 13 14  1  0  0  0  0
 12 15  1  0  0  0  0
 15 20  2  0  0  0  0
 15 16  1  0  0  0  0
 16 17  2  0  0  0  0
 17 18  1  0  0  0  0
 18 19  2  0  0  0  0
 19 20  1  0  0  0  0
 20 21  1  0  0  0  0
 21 25  1  0  0  0  0
 21 22  2  0  0  0  0
 22 23  1  0  0  0  0
 23 24  2  0  0  0  0
 24 25  1  0  0  0  0
  7 26  1  0  0  0  0
 26 27  1  1  0  0  0
 27 28  1  0  0  0  0
 27 29  1  0  0  0  0
 26 30  1  0  0  0  0
 30 31  2  0  0  0  0
 30 32  1  0  0  0  0
M  END
>  <Name>
Valsartan

>  <CAS #>
137862-53-4

>  <human Clearance (mL/min/kg)>
0.49

>  <Primary mechanism (metabolic, biliary or renal)>
biliary

>  <seqId>
962.0

>  <Code (mechanism and clearance degree index)>
B1

>  < Five M1 and R1 test groups>
32

>  <formamide>
0

>  <prodrug phosphates>
0

>  <VolSurf_V>
969.5

>  <VolSurf_S>
641.993

>  <VolSurf_R>
1.51014

>  <VolSurf_G>
1.57769

>  <VolSurf_IW1>
0.0857783

>  <VolSurf_IW2>
0.223383

>  <VolSurf_IW3>
0.455804

>  <VolSurf_IW4>
0.680631

>  <VolSurf_ID1>
0.0410632

>  <VolSurf_ID2>
0.0987459

>  <VolSurf_ID3>
0.171553

>  <VolSurf_ID4>
0.228141

>  <VolSurf_HL1>
4.39823

>  <VolSurf_HL2>
4.60674

>  <VolSurf_A>
5.82917

>  <VolSurf_CP>
0.346539

>  <VolSurf_POL>
46.64

>  <VolSurf_MW>
433.503

>  <VolSurf_FLEX>
2.53164

>  <VolSurf_FLEX_RB>
0.180832

>  <VolSurf_NCC>
2.0

>  <VolSurf_LOGP n-Oct>
5.015

>  <VolSurf_LOGP c-Hex>
-1.866

>  <VolSurf_PSA>
91.46

>  <VolSurf_HSA>
550.533

>  <VolSurf_PSAR>
0.142463

>  <VolSurf_PHSAR>
0.16613

>  <VolSurf_LgD5>
2.05678

>  <VolSurf_LgD6>
0.320672

>  <VolSurf_LgD7>
-0.203894

>  <VolSurf_LgD7.5>
-0.226831

>  <VolSurf_LgD8>
-0.232594

>  <VolSurf_LgD9>
-0.234767

>  <VolSurf_LgD10>
-0.234977

>  <VolSurf_AUS7.4>
0.0

>  <VolSurf_%FU4>
5.62309

>  <VolSurf_%FU5>
0.106797

>  <VolSurf_%FU6>
0.00116135

>  <VolSurf_%FU7>
1.17147E-5

>  <VolSurf_%FU8>
1.17249E-7

>  <VolSurf_%FU9>
1.1726E-9

>  <VolSurf_%FU10>
1.17261E-11

>  <ID>
457

>  <MOKAID>
458

>  <Clearance Route>
possible billary

>  <PC1>
0.13939400000000002

>  <PC2>
-1.24399

$$$$
Valspodar
  -OEChem-08301611272D

 86 86  0     1  0  0  0  0  0999 V2000
   16.0911    2.7792    0.0000 C   0  0  0  0  0  0  0  0  0  0  0  0
   15.2379    3.3007    0.0000 C   0  0  0  0  0  0  0  0  0  0  0  0
   14.3596    2.8225    0.0000 C   0  0  0  0  0  0  0  0  0  0  0  0
   13.5064    3.3440    0.0000 C   0  0  0  0  0  0  0  0  0  0  0  0
   12.6281    2.8657    0.0000 C   0  0  1  0  0  0  0  0  0  0  0  0
   12.6031    1.8661    0.0000 C   0  0  0  0  0  0  0  0  0  0  0  0
   11.7748    3.3872    0.0000 C   0  0  0  0  0  0  0  0  0  0  0  0
   11.7998    4.3869    0.0000 O   0  0  0  0  0  0  0  0  0  0  0  0
   10.8966    2.9090    0.0000 C   0  0  2  0  0  0  0  0  0  0  0  0
   10.0072    3.4469    0.0000 N   0  0  0  0  0  0  0  0  0  0  0  0
   10.0285    4.4467    0.0000 C   0  0  0  0  0  0  0  0  0  0  0  0
    9.0939    2.9464    0.0000 C   0  0  0  0  0  0  0  0  0  0  0  0
    9.0793    1.9465    0.0000 O   0  0  0  0  0  0  0  0  0  0  0  0
    8.1894    3.4769    0.0000 C   0  0  2  0  0  0  0  0  0  0  0  0
    8.1962    4.4769    0.0000 C   0  0  0  0  0  0  0  0  0  0  0  0
    7.3336    4.9828    0.0000 C   0  0  0  0  0  0  0  0  0  0  0  0
    9.0656    4.9710    0.0000 C   0  0  0  0  0  0  0  0  0  0  0  0
    7.2785    2.9592    0.0000 N   0  0  0  0  0  0  0  0  0  0  0  0
    7.2699    1.9592    0.0000 C   0  0  0  0  0  0  0  0  0  0  0  0
    6.3854    3.4873    0.0000 C   0  0  0  0  0  0  0  0  0  0  0  0
    6.3930    4.4873    0.0000 O   0  0  0  0  0  0  0  0  0  0  0  0
    5.4726    2.9660    0.0000 C   0  0  2  0  0  0  0  0  0  0  0  0
    5.4773    1.9660    0.0000 C   0  0  0  0  0  0  0  0  0  0  0  0
    4.6136    1.4619    0.0000 C   0  0  0  0  0  0  0  0  0  0  0  0
    3.7453    1.9579    0.0000 C   0  0  0  0  0  0  0  0  0  0  0  0
    4.6183    0.4620    0.0000 C   0  0  0  0  0  0  0  0  0  0  0  0
    4.5689    3.4709    0.0000 N   0  0  0  0  0  0  0  0  0  0  0  0
    4.5613    4.4709    0.0000 C   0  0  0  0  0  0  0  0  0  0  0  0
    3.6652    2.9479    0.0000 C   0  0  0  0  0  0  0  0  0  0  0  0
    3.6652    1.1979    0.0000 O   0  0  0  0  0  0  0  0  0  0  0  0
    2.7645    3.4691    0.0000 C   0  0  1  0  0  0  0  0  0  0  0  0
    2.7625    4.4691    0.0000 C   0  0  0  0  0  0  0  0  0  0  0  0
    1.8955    4.9674    0.0000 C   0  0  0  0  0  0  0  0  0  0  0  0
    1.0305    4.4657    0.0000 C   0  0  0  0  0  0  0  0  0  0  0  0
    1.8936    5.9674    0.0000 C   0  0  0  0  0  0  0  0  0  0  0  0
    1.8594    2.9406    0.0000 N   0  0  0  0  0  0  0  0  0  0  0  0
    0.9893    3.4334    0.0000 C   0  0  0  0  0  0  0  0  0  0  0  0
    1.8715    1.8975    0.0000 C   0  0  0  0  0  0  0  0  0  0  0  0
    2.7442    1.4092    0.0000 O   0  0  0  0  0  0  0  0  0  0  0  0
    0.9816    1.3653    0.0000 C   0  0  1  0  0  0  0  0  0  0  0  0
    1.1823   -0.3732    0.0000 C   0  0  0  0  0  0  0  0  0  0  0  0
   -0.0084    1.6815    0.0000 N   0  0  0  0  0  0  0  0  0  0  0  0
   -0.6153    0.8376    0.0000 C   0  0  0  0  0  0  0  0  0  0  0  0
   -1.6153    0.8325    0.0000 O   0  0  0  0  0  0  0  0  0  0  0  0
    0.0000    0.0000    0.0000 C   0  0  2  0  0  0  0  0  0  0  0  0
   -0.3052   -0.9523    0.0000 C   0  0  0  0  0  0  0  0  0  0  0  0
    0.9926    0.3255    0.0000 N   0  0  0  0  0  0  0  0  0  0  0  0
    1.8928   -0.1842    0.0000 C   0  0  0  0  0  0  0  0  0  0  0  0
    2.7544    0.3234    0.0000 O   0  0  0  0  0  0  0  0  0  0  0  0
    1.9024   -1.2192    0.0000 C   0  0  2  0  0  0  0  0  0  0  0  0
    1.0403   -1.7259    0.0000 C   0  0  0  0  0  0  0  0  0  0  0  0
    1.0481   -2.7259    0.0000 C   0  0  0  0  0  0  0  0  0  0  0  0
    1.9180   -3.2191    0.0000 C   0  0  0  0  0  0  0  0  0  0  0  0
    0.1860   -3.2326    0.0000 C   0  0  0  0  0  0  0  0  0  0  0  0
    2.8063   -1.7335    0.0000 N   0  0  0  0  0  0  0  0  0  0  0  0
    2.8174   -2.7334    0.0000 C   0  0  0  0  0  0  0  0  0  0  0  0
    3.6853   -1.2071    0.0000 C   0  0  0  0  0  0  0  0  0  0  0  0
    3.6776   -0.2071    0.0000 O   0  0  0  0  0  0  0  0  0  0  0  0
    4.5864   -1.7280    0.0000 C   0  0  1  0  0  0  0  0  0  0  0  0
    5.4753   -1.2095    0.0000 N   0  0  0  0  0  0  0  0  0  0  0  0
    6.3794   -1.7381    0.0000 C   0  0  0  0  0  0  0  0  0  0  0  0
    6.3872   -2.7381    0.0000 O   0  0  0  0  0  0  0  0  0  0  0  0
    7.2680   -1.1998    0.0000 C   0  0  2  0  0  0  0  0  0  0  0  0
    7.2622   -0.1998    0.0000 C   0  0  0  0  0  0  0  0  0  0  0  0
    6.3933    0.2952    0.0000 C   0  0  0  0  0  0  0  0  0  0  0  0
    5.5302   -0.2098    0.0000 C   0  0  0  0  0  0  0  0  0  0  0  0
    6.3876    1.2952    0.0000 C   0  0  0  0  0  0  0  0  0  0  0  0
    8.1653   -1.7293    0.0000 N   0  0  0  0  0  0  0  0  0  0  0  0
    8.1865   -2.7291    0.0000 C   0  0  0  0  0  0  0  0  0  0  0  0
    9.0042   -1.1850    0.0000 C   0  0  0  0  0  0  0  0  0  0  0  0
    8.9932   -0.1851    0.0000 O   0  0  0  0  0  0  0  0  0  0  0  0
    9.8882   -1.7312    0.0000 C   0  0  0  0  0  0  0  0  0  0  0  0
   10.8025   -1.2360    0.0000 N   0  0  0  0  0  0  0  0  0  0  0  0
   11.6541   -1.7603    0.0000 C   0  0  0  0  0  0  0  0  0  0  0  0
   10.8330   -0.1944    0.0000 C   0  0  0  0  0  0  0  0  0  0  0  0
    9.9788    0.3255    0.0000 O   0  0  0  0  0  0  0  0  0  0  0  0
   11.7320    0.3044    0.0000 C   0  0  1  0  0  0  0  0  0  0  0  0
   11.7525    1.3374    0.0000 N   0  0  0  0  0  0  0  0  0  0  0  0
   10.8658    1.8695    0.0000 C   0  0  0  0  0  0  0  0  0  0  0  0
    9.9884    1.3898    0.0000 O   0  0  0  0  0  0  0  0  0  0  0  0
   12.5887   -0.2115    0.0000 C   0  0  0  0  0  0  0  0  0  0  0  0
   13.4638    0.2725    0.0000 C   0  0  0  0  0  0  0  0  0  0  0  0
   12.5702   -1.2113    0.0000 C   0  0  0  0  0  0  0  0  0  0  0  0
    4.5884   -2.7280    0.0000 C   0  0  0  0  0  0  0  0  0  0  0  0
    5.4554   -3.2263    0.0000 C   0  0  0  0  0  0  0  0  0  0  0  0
    3.7233   -3.2297    0.0000 C   0  0  0  0  0  0  0  0  0  0  0  0
  1  2  1  0  0  0  0
  2  3  2  0  0  0  0
  3  4  1  0  0  0  0
  4  5  1  0  0  0  0
  5  6  1  1  0  0  0
  5  7  1  0  0  0  0
  7  8  2  0  0  0  0
  9  7  1  1  0  0  0
  9 79  1  0  0  0  0
  9 10  1  0  0  0  0
 10 11  1  0  0  0  0
 10 12  1  0  0  0  0
 12 13  2  0  0  0  0
 12 14  1  0  0  0  0
 14 15  1  1  0  0  0
 15 16  1  0  0  0  0
 15 17  1  0  0  0  0
 14 18  1  0  0  0  0
 18 19  1  0  0  0  0
 18 20  1  0  0  0  0
 20 21  2  0  0  0  0
 20 22  1  0  0  0  0
 22 23  1  6  0  0  0
 23 24  1  0  0  0  0
 24 25  1  0  0  0  0
 24 26  1  0  0  0  0
 22 27  1  0  0  0  0
 27 28  1  0  0  0  0
 27 29  1  0  0  0  0
 29 30  2  0  0  0  0
 29 31  1  0  0  0  0
 31 32  1  6  0  0  0
 32 33  1  0  0  0  0
 33 34  1  0  0  0  0
 33 35  1  0  0  0  0
 31 36  1  0  0  0  0
 36 37  1  0  0  0  0
 36 38  1  0  0  0  0
 38 39  2  0  0  0  0
 38 40  1  0  0  0  0
 40 41  1  1  0  0  0
 40 42  1  0  0  0  0
 42 43  1  0  0  0  0
 43 44  2  0  0  0  0
 43 45  1  0  0  0  0
 45 46  1  1  0  0  0
 45 47  1  0  0  0  0
 47 48  1  0  0  0  0
 48 49  2  0  0  0  0
 48 50  1  0  0  0  0
 50 51  1  1  0  0  0
 51 52  1  0  0  0  0
 52 53  1  0  0  0  0
 52 54  1  0  0  0  0
 50 55  1  0  0  0  0
 55 56  1  0  0  0  0
 55 57  1  0  0  0  0
 57 58  2  0  0  0  0
 57 59  1  0  0  0  0
 59 60  1  0  0  0  0
 60 61  1  0  0  0  0
 61 62  2  0  0  0  0
 61 63  1  0  0  0  0
 63 64  1  6  0  0  0
 64 65  1  0  0  0  0
 65 66  1  0  0  0  0
 65 67  1  0  0  0  0
 63 68  1  0  0  0  0
 68 69  1  0  0  0  0
 68 70  1  0  0  0  0
 70 71  2  0  0  0  0
 70 72  1  0  0  0  0
 72 73  1  0  0  0  0
 73 74  1  0  0  0  0
 73 75  1  0  0  0  0
 75 76  2  0  0  0  0
 75 77  1  0  0  0  0
 77 78  1  0  0  0  0
 78 79  1  0  0  0  0
 79 80  2  0  0  0  0
 77 81  1  1  0  0  0
 81 82  1  0  0  0  0
 81 83  1  0  0  0  0
 59 84  1  1  0  0  0
 84 85  1  0  0  0  0
 84 86  1  0  0  0  0
M  END
>  <Name>
Valspodar

>  <CAS #>
121584-18-7

>  <human Clearance (mL/min/kg)>
2.6

>  <Primary mechanism (metabolic, biliary or renal)>
metabolic

>  <seqId>
963.0

>  <Code (mechanism and clearance degree index)>
M1

>  < Five M1 and R1 test groups>
M1_5

>  <formamide>
0

>  <prodrug phosphates>
0

>  <VolSurf_V>
2506.75

>  <VolSurf_S>
1395.47

>  <VolSurf_R>
1.79635

>  <VolSurf_G>
1.95544

>  <VolSurf_IW1>
0.00689032

>  <VolSurf_IW2>
0.0228453

>  <VolSurf_IW3>
0.050502

>  <VolSurf_IW4>
0.0837921

>  <VolSurf_ID1>
0.00371491

>  <VolSurf_ID2>
0.0155755

>  <VolSurf_ID3>
0.0518613

>  <VolSurf_ID4>
0.0870904

>  <VolSurf_HL1>
5.59854

>  <VolSurf_HL2>
11.2869

>  <VolSurf_A>
2.12367

>  <VolSurf_CP>
0.660533

>  <VolSurf_POL>
129.2

>  <VolSurf_MW>
1214.62

>  <VolSurf_FLEX>
1.33788

>  <VolSurf_FLEX_RB>
0.0334469

>  <VolSurf_NCC>
0.0

>  <VolSurf_LOGP n-Oct>
6.767

>  <VolSurf_LOGP c-Hex>
-5.951

>  <VolSurf_PSA>
274.03

>  <VolSurf_HSA>
1121.44

>  <VolSurf_PSAR>
0.196371

>  <VolSurf_PHSAR>
0.244355

>  <VolSurf_LgD5>
6.767

>  <VolSurf_LgD6>
6.767

>  <VolSurf_LgD7>
6.767

>  <VolSurf_LgD7.5>
6.767

>  <VolSurf_LgD8>
6.767

>  <VolSurf_LgD9>
6.767

>  <VolSurf_LgD10>
6.76699

>  <VolSurf_AUS7.4>
2.0

>  <VolSurf_%FU4>
100.0

>  <VolSurf_%FU5>
100.0

>  <VolSurf_%FU6>
100.0

>  <VolSurf_%FU7>
100.0

>  <VolSurf_%FU8>
100.0

>  <VolSurf_%FU9>
99.9997

>  <VolSurf_%FU10>
99.9973

>  <ID>
458

>  <MOKAID>
459

>  <Clearance Route>
possible billary

>  <PC1>
4.46629

>  <PC2>
-10.8486

$$$$
Vancomycin
  -OEChem-08301611272D

104113  0     1  0  0  0  0  0999 V2000
    6.1247   -0.5429    0.0000 C   0  0  0  0  0  0  0  0  0  0  0  0
    5.2624   -0.0365    0.0000 N   0  0  0  0  0  0  0  0  0  0  0  0
    4.3927   -0.5300    0.0000 C   0  0  2  0  0  0  0  0  0  0  0  0
    4.3853   -1.5300    0.0000 C   0  0  0  0  0  0  0  0  0  0  0  0
    5.2476   -2.0364    0.0000 C   0  0  0  0  0  0  0  0  0  0  0  0
    6.1173   -1.5428    0.0000 C   0  0  0  0  0  0  0  0  0  0  0  0
    5.2402   -3.0364    0.0000 C   0  0  0  0  0  0  0  0  0  0  0  0
    3.5304   -0.0236    0.0000 C   0  0  0  0  0  0  0  0  0  0  0  0
    3.5378    0.9763    0.0000 O   0  0  0  0  0  0  0  0  0  0  0  0
    2.6607   -0.5172    0.0000 N   0  0  0  0  0  0  0  0  0  0  0  0
    1.7984   -0.0108    0.0000 C   0  0  2  0  0  0  0  0  0  0  0  0
    1.8047    1.0299    0.0000 C   0  0  2  0  0  0  0  0  0  0  0  0
    2.6692    1.5326    0.0000 O   0  0  0  0  0  0  0  0  0  0  0  0
    0.8988    1.5382    0.0000 C   0  0  0  0  0  0  0  0  0  0  0  0
    0.0091    1.0378    0.0000 C   0  0  0  0  0  0  0  0  0  0  0  0
   -0.8741    1.5609    0.0000 C   0  0  0  0  0  0  0  0  0  0  0  0
   -0.8675    2.5846    0.0000 C   0  0  0  0  0  0  0  0  0  0  0  0
   -1.7640    3.1535    0.0000 O   0  0  0  0  0  0  0  0  0  0  0  0
   -2.6868    2.6389    0.0000 C   0  0  0  0  0  0  0  0  0  0  0  0
   -2.6954    1.5872    0.0000 C   0  0  0  0  0  0  0  0  0  0  0  0
   -3.5871    1.0589    0.0000 C   0  0  0  0  0  0  0  0  0  0  0  0
   -4.4956    1.5698    0.0000 C   0  0  0  0  0  0  0  0  0  0  0  0
   -4.5123    2.6091    0.0000 C   0  0  0  0  0  0  0  0  0  0  0  0
   -5.3724    3.1193    0.0000 O   0  0  0  0  0  0  0  0  0  0  0  0
   -6.2703    2.6123    0.0000 C   0  0  0  0  0  0  0  0  0  0  0  0
   -6.2730    1.5860    0.0000 C   0  0  0  0  0  0  0  0  0  0  0  0
   -7.1660    1.0732    0.0000 C   0  0  0  0  0  0  0  0  0  0  0  0
   -8.0615    1.5930    0.0000 C   0  0  0  0  0  0  0  0  0  0  0  0
   -8.0640    2.6256    0.0000 C   0  0  0  0  0  0  0  0  0  0  0  0
   -7.1632    3.1404    0.0000 C   0  0  0  0  0  0  0  0  0  0  0  0
   -7.1557    4.1404    0.0000 Cl  0  0  0  0  0  0  0  0  0  0  0  0
   -8.9527    1.0787    0.0000 C   0  0  1  0  0  0  0  0  0  0  0  0
   -9.8174    1.5810    0.0000 O   0  0  0  0  0  0  0  0  0  0  0  0
   -8.9580    0.0469    0.0000 C   0  0  2  0  0  0  0  0  0  0  0  0
   -8.0649   -0.4834    0.0000 N   0  0  0  0  0  0  0  0  0  0  0  0
   -7.1775    0.0346    0.0000 C   0  0  0  0  0  0  0  0  0  0  0  0
   -7.1858    1.7846    0.0000 O   0  0  0  0  0  0  0  0  0  0  0  0
   -6.2803   -0.4778    0.0000 C   0  0  2  0  0  0  0  0  0  0  0  0
   -5.3888    0.0309    0.0000 N   0  0  0  0  0  0  0  0  0  0  0  0
   -4.4968   -0.4894    0.0000 C   0  0  0  0  0  0  0  0  0  0  0  0
   -4.5033   -1.4894    0.0000 O   0  0  0  0  0  0  0  0  0  0  0  0
   -3.5958    0.0206    0.0000 C   0  0  2  0  0  0  0  0  0  0  0  0
   -2.7026   -0.5018    0.0000 N   0  0  0  0  0  0  0  0  0  0  0  0
   -1.7979    0.0105    0.0000 C   0  0  0  0  0  0  0  0  0  0  0  0
   -1.7909    1.0105    0.0000 O   0  0  0  0  0  0  0  0  0  0  0  0
   -0.9046   -0.5120    0.0000 C   0  0  2  0  0  0  0  0  0  0  0  0
   -0.9117   -1.5120    0.0000 C   0  0  0  0  0  0  0  0  0  0  0  0
   -1.7813   -2.0058    0.0000 C   0  0  0  0  0  0  0  0  0  0  0  0
   -2.6437   -1.4997    0.0000 O   0  0  0  0  0  0  0  0  0  0  0  0
   -1.7884   -3.0058    0.0000 N   0  0  0  0  0  0  0  0  0  0  0  0
   -0.0000   -0.0000    0.0000 N   0  0  0  0  0  0  0  0  0  0  0  0
    0.8932   -0.5229    0.0000 C   0  0  0  0  0  0  0  0  0  0  0  0
    0.8858   -1.5229    0.0000 O   0  0  0  0  0  0  0  0  0  0  0  0
   -6.2704   -1.5081    0.0000 C   0  0  0  0  0  0  0  0  0  0  0  0
   -5.3562   -2.0216    0.0000 C   0  0  0  0  0  0  0  0  0  0  0  0
   -5.3509   -3.0753    0.0000 C   0  0  0  0  0  0  0  0  0  0  0  0
   -6.2579   -3.6075    0.0000 C   0  0  0  0  0  0  0  0  0  0  0  0
   -6.2523   -4.6075    0.0000 O   0  0  0  0  0  0  0  0  0  0  0  0
   -7.1701   -3.0859    0.0000 C   0  0  0  0  0  0  0  0  0  0  0  0
   -7.1774   -2.0402    0.0000 C   0  0  0  0  0  0  0  0  0  0  0  0
   -8.0987   -3.5866    0.0000 C   0  0  0  0  0  0  0  0  0  0  0  0
   -8.1050   -4.6156    0.0000 C   0  0  0  0  0  0  0  0  0  0  0  0
   -7.2437   -5.1238    0.0000 O   0  0  0  0  0  0  0  0  0  0  0  0
   -9.0070   -5.1211    0.0000 C   0  0  0  0  0  0  0  0  0  0  0  0
   -9.8951   -4.5956    0.0000 C   0  0  0  0  0  0  0  0  0  0  0  0
  -10.7671   -5.0850    0.0000 O   0  0  0  0  0  0  0  0  0  0  0  0
   -9.8811   -3.5644    0.0000 C   0  0  0  0  0  0  0  0  0  0  0  0
   -8.9868   -3.0609    0.0000 C   0  0  0  0  0  0  0  0  0  0  0  0
   -8.9755   -2.0265    0.0000 C   0  0  2  0  0  0  0  0  0  0  0  0
   -9.8745   -1.4963    0.0000 N   0  0  0  0  0  0  0  0  0  0  0  0
   -9.8588   -0.4585    0.0000 C   0  0  0  0  0  0  0  0  0  0  0  0
  -10.7179    0.0533    0.0000 O   0  0  0  0  0  0  0  0  0  0  0  0
   -8.1045   -1.5353    0.0000 C   0  0  0  0  0  0  0  0  0  0  0  0
   -7.2435   -2.0440    0.0000 O   0  0  0  0  0  0  0  0  0  0  0  0
   -8.0944   -0.5353    0.0000 O   0  0  0  0  0  0  0  0  0  0  0  0
   -3.6127    3.1397    0.0000 C   0  0  0  0  0  0  0  0  0  0  0  0
   -3.6451    4.8894    0.0000 O   0  0  0  0  0  0  0  0  0  0  0  0
   -2.1461    5.7923    0.0000 C   0  0  2  0  0  0  0  0  0  0  0  0
   -1.2679    5.3034    0.0000 O   0  0  0  0  0  0  0  0  0  0  0  0
   -0.4115    5.8296    0.0000 C   0  0  2  0  0  0  0  0  0  0  0  0
    0.4665    5.3510    0.0000 C   0  0  0  0  0  0  0  0  0  0  0  0
    1.3200    5.8720    0.0000 O   0  0  0  0  0  0  0  0  0  0  0  0
   -0.4331    6.8346    0.0000 C   0  0  1  0  0  0  0  0  0  0  0  0
    0.4212    7.3543    0.0000 O   0  0  0  0  0  0  0  0  0  0  0  0
   -1.3111    7.3133    0.0000 C   0  0  2  0  0  0  0  0  0  0  0  0
   -1.3326    8.3131    0.0000 O   0  0  0  0  0  0  0  0  0  0  0  0
   -2.1677    6.7973    0.0000 C   0  0  1  0  0  0  0  0  0  0  0  0
   -3.0436    7.2799    0.0000 O   0  0  0  0  0  0  0  0  0  0  0  0
   -3.0636    8.2797    0.0000 C   0  0  1  0  0  0  0  0  0  0  0  0
   -3.9455    8.7621    0.0000 C   0  0  0  0  0  0  0  0  0  0  0  0
   -3.9655    9.7619    0.0000 C   0  0  2  0  0  0  0  0  0  0  0  0
   -4.3300   10.6932    0.0000 C   0  0  0  0  0  0  0  0  0  0  0  0
   -4.9463    9.5666    0.0000 N   0  0  0  0  0  0  0  0  0  0  0  0
   -3.1127   10.2842    0.0000 C   0  0  2  0  0  0  0  0  0  0  0  0
   -3.1372   11.2839    0.0000 O   0  0  0  0  0  0  0  0  0  0  0  0
   -2.2309    9.8018    0.0000 C   0  0  2  0  0  0  0  0  0  0  0  0
   -1.3781   10.3241    0.0000 C   0  0  0  0  0  0  0  0  0  0  0  0
   -2.2018    8.7970    0.0000 O   0  0  0  0  0  0  0  0  0  0  0  0
    0.0300    3.0871    0.0000 C   0  0  0  0  0  0  0  0  0  0  0  0
    0.0422    4.0870    0.0000 Cl  0  0  0  0  0  0  0  0  0  0  0  0
    0.9132    2.5639    0.0000 C   0  0  0  0  0  0  0  0  0  0  0  0
   -8.0877    0.5394    0.0000 H   0  0  0  0  0  0  0  0  0  0  0  0
   -6.2801    0.5222    0.0000 H   0  0  0  0  0  0  0  0  0  0  0  0
   -3.6029   -0.9794    0.0000 H   0  0  0  0  0  0  0  0  0  0  0  0
  1  2  1  0  0  0  0
  2  3  1  0  0  0  0
  3  4  1  6  0  0  0
  4  5  1  0  0  0  0
  5  6  1  0  0  0  0
  5  7  1  0  0  0  0
  3  8  1  0  0  0  0
  8  9  2  0  0  0  0
  8 10  1  0  0  0  0
 11 10  1  1  0  0  0
 11 52  1  0  0  0  0
 11 12  1  0  0  0  0
 12 13  1  1  0  0  0
 12 14  1  0  0  0  0
 14101  2  0  0  0  0
 14 15  1  0  0  0  0
 15 16  2  0  0  0  0
 16 17  1  0  0  0  0
 17 18  1  0  0  0  0
 18 19  1  0  0  0  0
 19 76  2  0  0  0  0
 19 20  1  0  0  0  0
 20 21  2  0  0  0  0
 21 42  1  0  0  0  0
 21 22  1  0  0  0  0
 22 23  2  0  0  0  0
 23 24  1  0  0  0  0
 24 25  1  0  0  0  0
 25 30  2  0  0  0  0
 25 26  1  0  0  0  0
 26 27  2  0  0  0  0
 27 28  1  0  0  0  0
 28 29  2  0  0  0  0
 29 30  1  0  0  0  0
 30 31  1  0  0  0  0
 28 32  1  0  0  0  0
 32 33  1  6  0  0  0
 32 34  1  0  0  0  0
 34 71  1  0  0  0  0
 34 35  1  0  0  0  0
 35 36  1  0  0  0  0
 36 37  2  0  0  0  0
 36 38  1  0  0  0  0
 38 39  1  0  0  0  0
 39 40  1  0  0  0  0
 40 41  2  0  0  0  0
 40 42  1  0  0  0  0
 42 43  1  0  0  0  0
 43 44  1  0  0  0  0
 44 45  2  0  0  0  0
 44 46  1  0  0  0  0
 46 47  1  1  0  0  0
 47 48  1  0  0  0  0
 48 49  2  0  0  0  0
 48 50  1  0  0  0  0
 46 51  1  0  0  0  0
 51 52  1  0  0  0  0
 52 53  2  0  0  0  0
 38 54  1  0  0  0  0
 54 60  2  0  0  0  0
 54 55  1  0  0  0  0
 55 56  2  0  0  0  0
 56 57  1  0  0  0  0
 57 58  1  0  0  0  0
 57 59  2  0  0  0  0
 59 60  1  0  0  0  0
 59 61  1  0  0  0  0
 61 68  2  0  0  0  0
 61 62  1  0  0  0  0
 62 63  1  0  0  0  0
 62 64  2  0  0  0  0
 64 65  1  0  0  0  0
 65 66  1  0  0  0  0
 65 67  2  0  0  0  0
 67 68  1  0  0  0  0
 68 69  1  0  0  0  0
 69 70  1  0  0  0  0
 70 71  1  0  0  0  0
 71 72  2  0  0  0  0
 69 73  1  6  0  0  0
 73 74  2  0  0  0  0
 73 75  1  0  0  0  0
 23 76  1  0  0  0  0
 76 77  1  0  0  0  0
 78 77  1  1  0  0  0
 78 87  1  0  0  0  0
 78 79  1  0  0  0  0
 79 80  1  0  0  0  0
 80 81  1  1  0  0  0
 81 82  1  0  0  0  0
 80 83  1  0  0  0  0
 83 84  1  6  0  0  0
 83 85  1  0  0  0  0
 85 86  1  1  0  0  0
 85 87  1  0  0  0  0
 87 88  1  6  0  0  0
 89 88  1  1  0  0  0
 89 98  1  0  0  0  0
 89 90  1  0  0  0  0
 90 91  1  0  0  0  0
 91 92  1  0  0  0  0
 91 93  1  6  0  0  0
 91 94  1  0  0  0  0
 94 95  1  6  0  0  0
 94 96  1  0  0  0  0
 96 97  1  6  0  0  0
 96 98  1  0  0  0  0
 17 99  2  0  0  0  0
 99100  1  0  0  0  0
 99101  1  0  0  0  0
 34102  1  1  0  0  0
 38103  1  1  0  0  0
 42104  1  6  0  0  0
M  END
>  <Name>
Vancomycin

>  <CAS #>
1404-90-6

>  <human Clearance (mL/min/kg)>
1.3

>  <Primary mechanism (metabolic, biliary or renal)>
renal

>  <seqId>
964.0

>  <Code (mechanism and clearance degree index)>
R1

>  < Five M1 and R1 test groups>
R1_1

>  <formamide>
0

>  <prodrug phosphates>
0

>  <VolSurf_V>
2442.5

>  <VolSurf_S>
1438.3

>  <VolSurf_R>
1.69819

>  <VolSurf_G>
2.09997

>  <VolSurf_IW1>
0.0162576

>  <VolSurf_IW2>
0.0260491

>  <VolSurf_IW3>
0.0459392

>  <VolSurf_IW4>
0.0618456

>  <VolSurf_ID1>
0.0126251

>  <VolSurf_ID2>
0.0516509

>  <VolSurf_ID3>
0.0910307

>  <VolSurf_ID4>
0.126532

>  <VolSurf_HL1>
34.1195

>  <VolSurf_HL2>
36.0682

>  <VolSurf_A>
4.53389

>  <VolSurf_CP>
0.0498204

>  <VolSurf_POL>
141.243

>  <VolSurf_MW>
1450.26

>  <VolSurf_FLEX>
2.22311

>  <VolSurf_FLEX_RB>
0.0766588

>  <VolSurf_NCC>
3.0

>  <VolSurf_LOGP n-Oct>
0.290001

>  <VolSurf_LOGP c-Hex>
-9.0

>  <VolSurf_PSA>
573.75

>  <VolSurf_HSA>
864.549

>  <VolSurf_PSAR>
0.398909

>  <VolSurf_PHSAR>
0.663641

>  <VolSurf_LgD5>
-4.8461

>  <VolSurf_LgD6>
-3.94443

>  <VolSurf_LgD7>
-2.99835

>  <VolSurf_LgD7.5>
-2.59564

>  <VolSurf_LgD8>
-2.35

>  <VolSurf_LgD9>
-2.84644

>  <VolSurf_LgD10>
-4.41929

>  <VolSurf_AUS7.4>
0.0

>  <VolSurf_%FU4>
0.0

>  <VolSurf_%FU5>
0.0

>  <VolSurf_%FU6>
0.0

>  <VolSurf_%FU7>
0.0

>  <VolSurf_%FU8>
0.0

>  <VolSurf_%FU9>
0.0

>  <VolSurf_%FU10>
0.0

>  <ID>
459

>  <MOKAID>
460

>  <Clearance Route>
possible billary

>  <PC1>
-6.22801

>  <PC2>
-10.1592

$$$$
Vardenafil
  -OEChem-08301611272D

 34 37  0     0  0  0  0  0  0999 V2000
    4.2899   -3.4285    0.0000 C   0  0  0  0  0  0  0  0  0  0  0  0
    3.9809   -2.4774    0.0000 C   0  0  0  0  0  0  0  0  0  0  0  0
    3.0028   -2.2695    0.0000 C   0  0  0  0  0  0  0  0  0  0  0  0
    2.6938   -1.3184    0.0000 C   0  0  0  0  0  0  0  0  0  0  0  0
    3.2858   -0.5036    0.0000 N   0  0  0  0  0  0  0  0  0  0  0  0
    2.6938    0.3110    0.0000 C   0  0  0  0  0  0  0  0  0  0  0  0
    3.0028    1.2620    0.0000 C   0  0  0  0  0  0  0  0  0  0  0  0
    1.7360   -0.0000    0.0000 C   0  0  0  0  0  0  0  0  0  0  0  0
    0.8680    0.5079    0.0000 C   0  0  0  0  0  0  0  0  0  0  0  0
    0.8680    1.5079    0.0000 O   0  0  0  0  0  0  0  0  0  0  0  0
    0.0000    0.0000    0.0000 N   0  0  0  0  0  0  0  0  0  0  0  0
   -0.0000   -1.0058    0.0000 C   0  0  0  0  0  0  0  0  0  0  0  0
    0.8680   -1.5037    0.0000 N   0  0  0  0  0  0  0  0  0  0  0  0
    1.7360   -1.0071    0.0000 N   0  0  0  0  0  0  0  0  0  0  0  0
   -0.8653   -1.5070    0.0000 C   0  0  0  0  0  0  0  0  0  0  0  0
   -1.7350   -1.0031    0.0000 C   0  0  0  0  0  0  0  0  0  0  0  0
   -2.6003   -1.5146    0.0000 C   0  0  0  0  0  0  0  0  0  0  0  0
   -2.5959   -2.5198    0.0000 C   0  0  0  0  0  0  0  0  0  0  0  0
   -1.7263   -3.0135    0.0000 C   0  0  0  0  0  0  0  0  0  0  0  0
   -0.8609   -2.5122    0.0000 C   0  0  0  0  0  0  0  0  0  0  0  0
    0.0065   -3.0097    0.0000 O   0  0  0  0  0  0  0  0  0  0  0  0
    0.8711   -2.5072    0.0000 C   0  0  0  0  0  0  0  0  0  0  0  0
    1.7386   -3.0047    0.0000 C   0  0  0  0  0  0  0  0  0  0  0  0
   -3.4700   -1.0209    0.0000 S   0  0  0  0  0  0  0  0  0  0  0  0
   -3.9636   -1.8906    0.0000 O   0  0  0  0  0  0  0  0  0  0  0  0
   -2.9763   -0.1513    0.0000 O   0  0  0  0  0  0  0  0  0  0  0  0
   -4.3396   -0.5272    0.0000 N   0  0  0  0  0  0  0  0  0  0  0  0
   -4.3528    0.4776    0.0000 C   0  0  0  0  0  0  0  0  0  0  0  0
   -5.2269    0.9738    0.0000 C   0  0  0  0  0  0  0  0  0  0  0  0
   -6.0878    0.4651    0.0000 N   0  0  0  0  0  0  0  0  0  0  0  0
   -6.9574    0.9588    0.0000 C   0  0  0  0  0  0  0  0  0  0  0  0
   -7.8198    0.4525    0.0000 C   0  0  0  0  0  0  0  0  0  0  0  0
   -6.0833   -0.5349    0.0000 C   0  0  0  0  0  0  0  0  0  0  0  0
   -5.2092   -1.0310    0.0000 C   0  0  0  0  0  0  0  0  0  0  0  0
  1  2  1  0  0  0  0
  2  3  1  0  0  0  0
  3  4  1  0  0  0  0
  4 14  1  0  0  0  0
  4  5  2  0  0  0  0
  5  6  1  0  0  0  0
  6  7  1  0  0  0  0
  6  8  2  0  0  0  0
  8 14  1  0  0  0  0
  8  9  1  0  0  0  0
  9 10  2  0  0  0  0
  9 11  1  0  0  0  0
 11 12  1  0  0  0  0
 12 13  2  0  0  0  0
 13 14  1  0  0  0  0
 12 15  1  0  0  0  0
 15 20  2  0  0  0  0
 15 16  1  0  0  0  0
 16 17  2  0  0  0  0
 17 18  1  0  0  0  0
 18 19  2  0  0  0  0
 19 20  1  0  0  0  0
 20 21  1  0  0  0  0
 21 22  1  0  0  0  0
 22 23  1  0  0  0  0
 17 24  1  0  0  0  0
 24 25  2  0  0  0  0
 24 26  2  0  0  0  0
 24 27  1  0  0  0  0
 27 34  1  0  0  0  0
 27 28  1  0  0  0  0
 28 29  1  0  0  0  0
 29 30  1  0  0  0  0
 30 31  1  0  0  0  0
 31 32  1  0  0  0  0
 30 33  1  0  0  0  0
 33 34  1  0  0  0  0
M  END
>  <Name>
Vardenafil

>  <CAS #>
224785-90-4

>  <human Clearance (mL/min/kg)>
13.0

>  <Primary mechanism (metabolic, biliary or renal)>
metabolic

>  <seqId>
965.0

>  <Code (mechanism and clearance degree index)>
M1

>  < Five M1 and R1 test groups>
M1_2

>  <formamide>
0

>  <prodrug phosphates>
0

>  <VolSurf_V>
1058.75

>  <VolSurf_S>
703.703

>  <VolSurf_R>
1.50454

>  <VolSurf_G>
1.65792

>  <VolSurf_IW1>
0.0472841

>  <VolSurf_IW2>
0.133627

>  <VolSurf_IW3>
0.366032

>  <VolSurf_IW4>
0.756835

>  <VolSurf_ID1>
0.0207957

>  <VolSurf_ID2>
0.0657139

>  <VolSurf_ID3>
0.101794

>  <VolSurf_ID4>
0.116156

>  <VolSurf_HL1>
1.56985

>  <VolSurf_HL2>
0.878788

>  <VolSurf_A>
3.37704

>  <VolSurf_CP>
1.36441

>  <VolSurf_POL>
53.394

>  <VolSurf_MW>
489.611

>  <VolSurf_FLEX>
2.25381

>  <VolSurf_FLEX_RB>
0.187817

>  <VolSurf_NCC>
1.0

>  <VolSurf_LOGP n-Oct>
1.184

>  <VolSurf_LOGP c-Hex>
-0.325

>  <VolSurf_PSA>
125.383

>  <VolSurf_HSA>
578.32

>  <VolSurf_PSAR>
0.178175

>  <VolSurf_PHSAR>
0.216805

>  <VolSurf_LgD5>
-1.96134

>  <VolSurf_LgD6>
-0.748295

>  <VolSurf_LgD7>
0.232656

>  <VolSurf_LgD7.5>
0.640106

>  <VolSurf_LgD8>
0.931415

>  <VolSurf_LgD9>
1.15104

>  <VolSurf_LgD10>
1.18059

>  <VolSurf_AUS7.4>
1.39419

>  <VolSurf_%FU4>
3.32523E-4

>  <VolSurf_%FU5>
0.0558847

>  <VolSurf_%FU6>
1.13727

>  <VolSurf_%FU7>
11.1547

>  <VolSurf_%FU8>
55.8849

>  <VolSurf_%FU9>
92.6897

>  <VolSurf_%FU10>
99.2176

>  <ID>
460

>  <MOKAID>
461

>  <Clearance Route>
possible billary

>  <PC1>
0.673053

>  <PC2>
-2.30225

$$$$
Venlafaxine
  -OEChem-08301611272D

 20 21  0     1  0  0  0  0  0999 V2000
    2.5995    1.4976    0.0000 C   0  0  0  0  0  0  0  0  0  0  0  0
    1.7350    2.0001    0.0000 O   0  0  0  0  0  0  0  0  0  0  0  0
    0.8675    1.5027    0.0000 C   0  0  0  0  0  0  0  0  0  0  0  0
    0.8675    0.4975    0.0000 C   0  0  0  0  0  0  0  0  0  0  0  0
    0.0000    0.0000    0.0000 C   0  0  0  0  0  0  0  0  0  0  0  0
   -0.8675    0.4975    0.0000 C   0  0  0  0  0  0  0  0  0  0  0  0
   -0.8675    1.5027    0.0000 C   0  0  0  0  0  0  0  0  0  0  0  0
    0.0000    2.0104    0.0000 C   0  0  0  0  0  0  0  0  0  0  0  0
   -1.7328   -0.0038    0.0000 C   0  0  3  0  0  0  0  0  0  0  0  0
   -1.7313   -1.0038    0.0000 C   0  0  0  0  0  0  0  0  0  0  0  0
   -0.8646   -1.5025    0.0000 N   0  0  0  0  0  0  0  0  0  0  0  0
    0.0007   -1.0012    0.0000 C   0  0  0  0  0  0  0  0  0  0  0  0
   -0.8631   -2.5025    0.0000 C   0  0  0  0  0  0  0  0  0  0  0  0
   -2.5995    0.4950    0.0000 C   0  0  0  0  0  0  0  0  0  0  0  0
   -2.9384   -0.4459    0.0000 O   0  0  0  0  0  0  0  0  0  0  0  0
   -3.5904    0.6642    0.0000 C   0  0  0  0  0  0  0  0  0  0  0  0
   -3.9348    1.6031    0.0000 C   0  0  0  0  0  0  0  0  0  0  0  0
   -3.2983    2.3744    0.0000 C   0  0  0  0  0  0  0  0  0  0  0  0
   -2.3075    2.2052    0.0000 C   0  0  0  0  0  0  0  0  0  0  0  0
   -1.9531    1.2646    0.0000 C   0  0  0  0  0  0  0  0  0  0  0  0
  1  2  1  0  0  0  0
  2  3  1  0  0  0  0
  3  8  2  0  0  0  0
  3  4  1  0  0  0  0
  4  5  2  0  0  0  0
  5  6  1  0  0  0  0
  6  7  2  0  0  0  0
  7  8  1  0  0  0  0
  6  9  1  0  0  0  0
  9 10  1  0  0  0  0
 10 11  1  0  0  0  0
 11 12  1  0  0  0  0
 11 13  1  0  0  0  0
  9 14  1  0  0  0  0
 14 20  1  0  0  0  0
 14 15  1  0  0  0  0
 14 16  1  0  0  0  0
 16 17  1  0  0  0  0
 17 18  1  0  0  0  0
 18 19  1  0  0  0  0
 19 20  1  0  0  0  0
M  END
>  <Name>
Venlafaxine

>  <CAS #>
93413-69-5

>  <human Clearance (mL/min/kg)>
14.0

>  <Primary mechanism (metabolic, biliary or renal)>
metabolic

>  <seqId>
967.0

>  <Code (mechanism and clearance degree index)>
M1

>  < Five M1 and R1 test groups>
M1_4

>  <formamide>
0

>  <prodrug phosphates>
0

>  <VolSurf_V>
688.375

>  <VolSurf_S>
458.522

>  <VolSurf_R>
1.50129

>  <VolSurf_G>
1.34119

>  <VolSurf_IW1>
0.0306641

>  <VolSurf_IW2>
0.117823

>  <VolSurf_IW3>
0.373961

>  <VolSurf_IW4>
0.951451

>  <VolSurf_ID1>
0.0180077

>  <VolSurf_ID2>
0.0593848

>  <VolSurf_ID3>
0.164291

>  <VolSurf_ID4>
0.248304

>  <VolSurf_HL1>
1.76733

>  <VolSurf_HL2>
1.7284

>  <VolSurf_A>
3.09779

>  <VolSurf_CP>
1.15547

>  <VolSurf_POL>
34.393

>  <VolSurf_MW>
278.41

>  <VolSurf_FLEX>
1.45815

>  <VolSurf_FLEX_RB>
0.162017

>  <VolSurf_NCC>
1.0

>  <VolSurf_LOGP n-Oct>
3.4

>  <VolSurf_LOGP c-Hex>
2.509

>  <VolSurf_PSA>
43.07

>  <VolSurf_HSA>
415.452

>  <VolSurf_PSAR>
0.0939323

>  <VolSurf_PHSAR>
0.10367

>  <VolSurf_LgD5>
-0.52765

>  <VolSurf_LgD6>
0.106972

>  <VolSurf_LgD7>
1.04387

>  <VolSurf_LgD7.5>
1.53478

>  <VolSurf_LgD8>
2.02062

>  <VolSurf_LgD9>
2.88162

>  <VolSurf_LgD10>
3.31012

>  <VolSurf_AUS7.4>
0.250555

>  <VolSurf_%FU4>
4.34873E-4

>  <VolSurf_%FU5>
0.00434856

>  <VolSurf_%FU6>
0.0434685

>  <VolSurf_%FU7>
0.432991

>  <VolSurf_%FU8>
4.16751

>  <VolSurf_%FU9>
30.3075

>  <VolSurf_%FU10>
81.304

>  <ID>
461

>  <MOKAID>
462

>  <Clearance Route>
metabolic

>  <PC1>
1.67513

>  <PC2>
-0.43796899999999994

$$$$
Verapamil
  -OEChem-08301611272D

 33 34  0     1  0  0  0  0  0999 V2000
   -3.4670   -0.0025    0.0000 C   0  0  0  0  0  0  0  0  0  0  0  0
   -2.6003   -0.5013    0.0000 O   0  0  0  0  0  0  0  0  0  0  0  0
   -1.7350   -0.0000    0.0000 C   0  0  0  0  0  0  0  0  0  0  0  0
   -0.8675   -0.4975    0.0000 C   0  0  0  0  0  0  0  0  0  0  0  0
    0.0000    0.0000    0.0000 C   0  0  0  0  0  0  0  0  0  0  0  0
   -0.0000    1.0052    0.0000 C   0  0  0  0  0  0  0  0  0  0  0  0
    0.8675    1.5026    0.0000 C   0  0  0  0  0  0  0  0  0  0  0  0
    0.8704    2.5026    0.0000 C   0  0  0  0  0  0  0  0  0  0  0  0
    1.7379    3.0001    0.0000 N   0  0  3  0  0  0  0  0  0  0  0  0
    2.6025    2.4975    0.0000 C   0  0  0  0  0  0  0  0  0  0  0  0
    1.7409    4.0001    0.0000 C   0  0  0  0  0  0  0  0  0  0  0  0
    2.6084    4.4975    0.0000 C   0  0  0  0  0  0  0  0  0  0  0  0
    2.6113    5.4975    0.0000 C   0  0  0  0  0  0  0  0  0  0  0  0
    3.4788    5.9950    0.0000 C   0  0  3  0  0  0  0  0  0  0  0  0
    3.9763    5.1275    0.0000 C   0  0  0  0  0  0  0  0  0  0  0  0
    4.4737    4.2600    0.0000 N   0  0  0  0  0  0  0  0  0  0  0  0
    2.9814    6.8625    0.0000 C   0  0  0  0  0  0  0  0  0  0  0  0
    3.4839    7.7270    0.0000 C   0  0  0  0  0  0  0  0  0  0  0  0
    1.9814    6.8654    0.0000 C   0  0  0  0  0  0  0  0  0  0  0  0
    4.9970    6.8655    0.0000 C   0  0  0  0  0  0  0  0  0  0  0  0
    4.9970    7.8707    0.0000 C   0  0  0  0  0  0  0  0  0  0  0  0
    5.8645    8.3682    0.0000 C   0  0  0  0  0  0  0  0  0  0  0  0
    6.7320    7.8707    0.0000 C   0  0  0  0  0  0  0  0  0  0  0  0
    7.5973    8.3719    0.0000 O   0  0  0  0  0  0  0  0  0  0  0  0
    8.4640    7.8732    0.0000 C   0  0  0  0  0  0  0  0  0  0  0  0
    6.7320    6.8655    0.0000 C   0  0  0  0  0  0  0  0  0  0  0  0
    7.5995    6.3680    0.0000 O   0  0  0  0  0  0  0  0  0  0  0  0
    7.6024    5.3680    0.0000 C   0  0  0  0  0  0  0  0  0  0  0  0
    5.8645    6.3578    0.0000 C   0  0  0  0  0  0  0  0  0  0  0  0
   -0.8675    1.5129    0.0000 C   0  0  0  0  0  0  0  0  0  0  0  0
   -1.7350    1.0052    0.0000 C   0  0  0  0  0  0  0  0  0  0  0  0
   -2.6025    1.5026    0.0000 O   0  0  0  0  0  0  0  0  0  0  0  0
   -3.4670    1.0001    0.0000 C   0  0  0  0  0  0  0  0  0  0  0  0
  1  2  1  0  0  0  0
  2  3  1  0  0  0  0
  3 31  2  0  0  0  0
  3  4  1  0  0  0  0
  4  5  2  0  0  0  0
  5  6  1  0  0  0  0
  6  7  1  0  0  0  0
  7  8  1  0  0  0  0
  8  9  1  0  0  0  0
  9 10  1  0  0  0  0
  9 11  1  0  0  0  0
 11 12  1  0  0  0  0
 12 13  1  0  0  0  0
 13 14  1  0  0  0  0
 14 15  1  0  0  0  0
 15 16  3  0  0  0  0
 14 17  1  0  0  0  0
 17 18  1  0  0  0  0
 17 19  1  0  0  0  0
 14 20  1  0  0  0  0
 20 29  2  0  0  0  0
 20 21  1  0  0  0  0
 21 22  2  0  0  0  0
 22 23  1  0  0  0  0
 23 24  1  0  0  0  0
 24 25  1  0  0  0  0
 23 26  2  0  0  0  0
 26 27  1  0  0  0  0
 27 28  1  0  0  0  0
 26 29  1  0  0  0  0
  6 30  2  0  0  0  0
 30 31  1  0  0  0  0
 31 32  1  0  0  0  0
 32 33  1  0  0  0  0
M  END
>  <Name>
Verapamil

>  <CAS #>
52-53-9

>  <human Clearance (mL/min/kg)>
18.0

>  <Primary mechanism (metabolic, biliary or renal)>
metabolic

>  <seqId>
968.0

>  <Code (mechanism and clearance degree index)>
M1

>  < Five M1 and R1 test groups>
M1_4

>  <formamide>
0

>  <prodrug phosphates>
0

>  <VolSurf_V>
1087.0

>  <VolSurf_S>
696.634

>  <VolSurf_R>
1.56036

>  <VolSurf_G>
1.59056

>  <VolSurf_IW1>
0.0399032

>  <VolSurf_IW2>
0.156942

>  <VolSurf_IW3>
0.41995

>  <VolSurf_IW4>
0.766392

>  <VolSurf_ID1>
0.0151907

>  <VolSurf_ID2>
0.0228182

>  <VolSurf_ID3>
0.0281952

>  <VolSurf_ID4>
0.0890851

>  <VolSurf_HL1>
0.891519

>  <VolSurf_HL2>
0.41806

>  <VolSurf_A>
4.45273

>  <VolSurf_CP>
4.62752

>  <VolSurf_POL>
53.458

>  <VolSurf_MW>
455.609

>  <VolSurf_FLEX>
3.4002

>  <VolSurf_FLEX_RB>
0.161914

>  <VolSurf_NCC>
1.0

>  <VolSurf_LOGP n-Oct>
4.468

>  <VolSurf_LOGP c-Hex>
4.676

>  <VolSurf_PSA>
80.92

>  <VolSurf_HSA>
615.714

>  <VolSurf_PSAR>
0.116159

>  <VolSurf_PHSAR>
0.131425

>  <VolSurf_LgD5>
0.663743

>  <VolSurf_LgD6>
1.5619

>  <VolSurf_LgD7>
2.54564

>  <VolSurf_LgD7.5>
3.03369

>  <VolSurf_LgD8>
3.5002

>  <VolSurf_LgD9>
4.20584

>  <VolSurf_LgD10>
4.43342

>  <VolSurf_AUS7.4>
0.561287

>  <VolSurf_%FU4>
0.00120653

>  <VolSurf_%FU5>
0.012064

>  <VolSurf_%FU6>
0.120509

>  <VolSurf_%FU7>
1.19216

>  <VolSurf_%FU8>
10.7664

>  <VolSurf_%FU9>
54.6803

>  <VolSurf_%FU10>
92.3462

>  <ID>
462

>  <MOKAID>
463

>  <Clearance Route>
possible billary

>  <PC1>
2.71592

>  <PC2>
-3.00738

$$$$
Vernakalant
  -OEChem-08301611272D

 25 27  0     1  0  0  0  0  0999 V2000
    4.6969    2.5584    0.0000 C   0  0  0  0  0  0  0  0  0  0  0  0
    4.6999    1.5532    0.0000 C   0  0  0  0  0  0  0  0  0  0  0  0
    3.8339    1.0430    0.0000 C   0  0  0  0  0  0  0  0  0  0  0  0
    2.9649    1.5481    0.0000 C   0  0  0  0  0  0  0  0  0  0  0  0
    2.9619    2.5533    0.0000 C   0  0  0  0  0  0  0  0  0  0  0  0
    3.8279    3.0533    0.0000 C   0  0  0  0  0  0  0  0  0  0  0  0
    2.0989    1.0480    0.0000 C   0  0  0  0  0  0  0  0  0  0  0  0
    1.2329    1.5480    0.0000 C   0  0  0  0  0  0  0  0  0  0  0  0
    1.2328    2.5480    0.0000 O   0  0  0  0  0  0  0  0  0  0  0  0
    0.3668    3.0480    0.0000 C   0  0  1  0  0  0  0  0  0  0  0  0
   -0.5022    2.5428    0.0000 C   0  0  1  0  0  0  0  0  0  0  0  0
   -1.3683    3.0427    0.0000 C   0  0  0  0  0  0  0  0  0  0  0  0
   -1.3742    4.0428    0.0000 C   0  0  0  0  0  0  0  0  0  0  0  0
   -0.5052    4.5480    0.0000 C   0  0  0  0  0  0  0  0  0  0  0  0
    0.3697    4.0531    0.0000 C   0  0  0  0  0  0  0  0  0  0  0  0
   -0.5007    1.5428    0.0000 N   0  0  3  0  0  0  0  0  0  0  0  0
    0.3118    0.9519    0.0000 C   0  0  0  0  0  0  0  0  0  0  0  0
    0.0000    0.0000    0.0000 C   0  0  1  0  0  0  0  0  0  0  0  0
   -1.0015    0.0000    0.0000 C   0  0  0  0  0  0  0  0  0  0  0  0
   -1.3080    0.9519    0.0000 C   0  0  0  0  0  0  0  0  0  0  0  0
    0.5868   -0.8097    0.0000 O   0  0  0  0  0  0  0  0  0  0  0  0
    5.5689    1.0584    0.0000 O   0  0  0  0  0  0  0  0  0  0  0  0
    5.5748    0.0584    0.0000 C   0  0  0  0  0  0  0  0  0  0  0  0
    5.5607    3.0623    0.0000 O   0  0  0  0  0  0  0  0  0  0  0  0
    6.4290    2.5661    0.0000 C   0  0  0  0  0  0  0  0  0  0  0  0
  1  6  2  0  0  0  0
  1  2  1  0  0  0  0
  2  3  2  0  0  0  0
  3  4  1  0  0  0  0
  4  5  2  0  0  0  0
  5  6  1  0  0  0  0
  4  7  1  0  0  0  0
  7  8  1  0  0  0  0
  8  9  1  0  0  0  0
 10  9  1  1  0  0  0
 10 15  1  0  0  0  0
 10 11  1  0  0  0  0
 11 12  1  0  0  0  0
 12 13  1  0  0  0  0
 13 14  1  0  0  0  0
 14 15  1  0  0  0  0
 11 16  1  6  0  0  0
 16 20  1  0  0  0  0
 16 17  1  0  0  0  0
 17 18  1  0  0  0  0
 18 19  1  0  0  0  0
 19 20  1  0  0  0  0
 18 21  1  6  0  0  0
  2 22  1  0  0  0  0
 22 23  1  0  0  0  0
  1 24  1  0  0  0  0
 24 25  1  0  0  0  0
M  END
>  <Name>
Vernakalant

>  <CAS #>
794466-70-9

>  <human Clearance (mL/min/kg)>
8.29

>  <Primary mechanism (metabolic, biliary or renal)>
metabolic

>  <seqId>
970.0

>  <Code (mechanism and clearance degree index)>
M1

>  < Five M1 and R1 test groups>
M1_5

>  <formamide>
0

>  <prodrug phosphates>
0

>  <VolSurf_V>
839.25

>  <VolSurf_S>
583.03

>  <VolSurf_R>
1.43946

>  <VolSurf_G>
1.57732

>  <VolSurf_IW1>
0.0394841

>  <VolSurf_IW2>
0.144866

>  <VolSurf_IW3>
0.50877

>  <VolSurf_IW4>
0.871018

>  <VolSurf_ID1>
0.0378294

>  <VolSurf_ID2>
0.0773574

>  <VolSurf_ID3>
0.140782

>  <VolSurf_ID4>
0.21612

>  <VolSurf_HL1>
1.77592

>  <VolSurf_HL2>
1.5

>  <VolSurf_A>
5.27485

>  <VolSurf_CP>
0.906342

>  <VolSurf_POL>
40.398

>  <VolSurf_MW>
350.472

>  <VolSurf_FLEX>
2.30718

>  <VolSurf_FLEX_RB>
0.230718

>  <VolSurf_NCC>
1.0

>  <VolSurf_LOGP n-Oct>
2.891

>  <VolSurf_LOGP c-Hex>
2.999

>  <VolSurf_PSA>
67.03

>  <VolSurf_HSA>
516.0

>  <VolSurf_PSAR>
0.114968

>  <VolSurf_PHSAR>
0.129903

>  <VolSurf_LgD5>
0.0640563

>  <VolSurf_LgD6>
0.436104

>  <VolSurf_LgD7>
1.25754

>  <VolSurf_LgD7.5>
1.72125

>  <VolSurf_LgD8>
2.15772

>  <VolSurf_LgD9>
2.73163

>  <VolSurf_LgD10>
2.87214

>  <VolSurf_AUS7.4>
0.781958

>  <VolSurf_%FU4>
0.00225147

>  <VolSurf_%FU5>
0.0225101

>  <VolSurf_%FU6>
0.224646

>  <VolSurf_%FU7>
2.20194

>  <VolSurf_%FU8>
18.3775

>  <VolSurf_%FU9>
69.2449

>  <VolSurf_%FU10>
95.744

>  <ID>
463

>  <MOKAID>
464

>  <Clearance Route>
metabolic

>  <PC1>
1.9355

>  <PC2>
-1.0666

$$$$
Verteporfin-Mac
  -OEChem-08301611272D

 53 58  0     1  0  0  0  0  0999 V2000
    3.8539   -6.5287    0.0000 C   0  0  0  0  0  0  0  0  0  0  0  0
    3.9716   -7.5217    0.0000 C   0  0  0  0  0  0  0  0  0  0  0  0
    3.1705   -8.1202    0.0000 C   0  0  0  0  0  0  0  0  0  0  0  0
    3.2882   -9.1133    0.0000 C   0  0  0  0  0  0  0  0  0  0  0  0
    2.4870   -9.7117    0.0000 O   0  0  0  0  0  0  0  0  0  0  0  0
    2.6047  -10.7048    0.0000 C   0  0  0  0  0  0  0  0  0  0  0  0
    4.2070   -9.5078    0.0000 O   0  0  0  0  0  0  0  0  0  0  0  0
    4.5007   -5.7201    0.0000 C   0  0  0  0  0  0  0  0  0  0  0  0
    5.3697   -6.2860    0.0000 C   0  0  0  0  0  0  0  0  0  0  0  0
    6.3197   -5.8414    0.0000 C   0  0  0  0  0  0  0  0  0  0  0  0
    7.0070   -6.6094    0.0000 C   0  0  0  0  0  0  0  0  0  0  0  0
    8.3746   -5.4573    0.0000 C   0  0  0  0  0  0  0  0  0  0  0  0
    7.6873   -4.6893    0.0000 C   0  0  0  0  0  0  0  0  0  0  0  0
    8.0579   -3.5371    0.0000 C   0  0  0  0  0  0  0  0  0  0  0  0
    7.5122   -2.6681    0.0000 C   0  0  0  0  0  0  0  0  0  0  0  0
    6.4612   -2.5872    0.0000 N   0  0  0  0  0  0  0  0  0  0  0  0
    6.0165   -1.6576    0.0000 C   0  0  0  0  0  0  0  0  0  0  0  0
    5.1204   -1.1522    0.0000 C   0  0  0  0  0  0  0  0  0  0  0  0
    4.2108   -1.6576    0.0000 C   0  0  0  0  0  0  0  0  0  0  0  0
    3.4833   -0.9434    0.0000 C   0  0  0  0  0  0  0  0  0  0  0  0
    2.1897   -2.1830    0.0000 C   0  0  1  0  0  0  0  0  0  0  0  0
    0.4515   -1.7114    0.0000 C   0  0  1  0  0  0  0  0  0  0  0  0
    0.0000    0.0000    0.0000 C   0  0  0  0  0  0  0  0  0  0  0  0
    1.3005    1.2328    0.0000 C   0  0  0  0  0  0  0  0  0  0  0  0
    3.0386    0.7546    0.0000 C   0  0  0  0  0  0  0  0  0  0  0  0
   -0.9619    0.2736    0.0000 C   0  0  0  0  0  0  0  0  0  0  0  0
   -1.6797   -0.4227    0.0000 O   0  0  0  0  0  0  0  0  0  0  0  0
   -2.6415   -0.1491    0.0000 C   0  0  0  0  0  0  0  0  0  0  0  0
   -1.2059    1.2433    0.0000 O   0  0  0  0  0  0  0  0  0  0  0  0
   -0.2581   -2.4160    0.0000 C   0  0  0  0  0  0  0  0  0  0  0  0
   -1.2231   -2.1538    0.0000 O   0  0  0  0  0  0  0  0  0  0  0  0
   -0.0026   -3.3829    0.0000 O   0  0  0  0  0  0  0  0  0  0  0  0
   -0.7122   -4.0875    0.0000 C   0  0  0  0  0  0  0  0  0  0  0  0
    2.9242   -2.9039    0.0000 C   0  0  0  0  0  0  0  0  0  0  0  0
    3.9347   -2.6478    0.0000 N   0  0  0  0  0  0  0  0  0  0  0  0
    2.4794   -3.8335    0.0000 C   0  0  0  0  0  0  0  0  0  0  0  0
    3.0858   -4.6286    0.0000 C   0  0  0  0  0  0  0  0  0  0  0  0
    4.1167   -4.7701    0.0000 N   0  0  0  0  0  0  0  0  0  0  0  0
    2.4391   -5.4303    0.0000 C   0  0  0  0  0  0  0  0  0  0  0  0
    1.4458   -5.5460    0.0000 C   0  0  0  0  0  0  0  0  0  0  0  0
    1.6924   -3.0506    0.0000 C   0  0  0  0  0  0  0  0  0  0  0  0
    6.6229   -0.8220    0.0000 C   0  0  0  0  0  0  0  0  0  0  0  0
    6.4504    0.1630    0.0000 C   0  0  0  0  0  0  0  0  0  0  0  0
    8.1118   -1.8327    0.0000 C   0  0  0  0  0  0  0  0  0  0  0  0
    9.0964   -1.6577    0.0000 C   0  0  0  0  0  0  0  0  0  0  0  0
    9.4371   -0.7175    0.0000 C   0  0  0  0  0  0  0  0  0  0  0  0
    6.6566   -4.8711    0.0000 N   0  0  0  0  0  0  0  0  0  0  0  0
    9.3721   -5.5276    0.0000 C   0  0  0  0  0  0  0  0  0  0  0  0
    6.9367   -7.6069    0.0000 C   0  0  0  0  0  0  0  0  0  0  0  0
    7.7654   -8.1666    0.0000 C   0  0  0  0  0  0  0  0  0  0  0  0
    7.6951   -9.1641    0.0000 C   0  0  0  0  0  0  0  0  0  0  0  0
    8.5239   -9.7237    0.0000 O   0  0  0  0  0  0  0  0  0  0  0  0
    6.7961   -9.6020    0.0000 O   0  0  0  0  0  0  0  0  0  0  0  0
  1 39  2  0  0  0  0
  1  2  1  0  0  0  0
  2  3  1  0  0  0  0
  3  4  1  0  0  0  0
  4  5  1  0  0  0  0
  5  6  1  0  0  0  0
  4  7  2  0  0  0  0
  1  8  1  0  0  0  0
  8 38  1  0  0  0  0
  8  9  2  3  0  0  0
  9 10  1  0  0  0  0
 10 47  1  0  0  0  0
 10 11  2  0  0  0  0
 11 12  1  0  0  0  0
 12 13  2  0  0  0  0
 13 14  1  0  0  0  0
 14 15  2  3  0  0  0
 15 44  1  0  0  0  0
 15 16  1  0  0  0  0
 16 17  2  0  0  0  0
 17 18  1  0  0  0  0
 18 19  2  3  0  0  0
 19 35  1  0  0  0  0
 19 20  1  0  0  0  0
 20 25  2  0  0  0  0
 20 21  1  0  0  0  0
 21 22  1  0  0  0  0
 22 23  1  0  0  0  0
 23 24  2  0  0  0  0
 24 25  1  0  0  0  0
 23 26  1  0  0  0  0
 26 27  1  0  0  0  0
 27 28  1  0  0  0  0
 26 29  2  0  0  0  0
 22 30  1  6  0  0  0
 30 31  2  0  0  0  0
 30 32  1  0  0  0  0
 32 33  1  0  0  0  0
 21 34  1  0  0  0  0
 34 35  1  0  0  0  0
 34 36  2  3  0  0  0
 36 37  1  0  0  0  0
 37 38  2  0  0  0  0
 37 39  1  0  0  0  0
 39 40  1  0  0  0  0
 21 41  1  1  0  0  0
 17 42  1  0  0  0  0
 42 43  1  0  0  0  0
 42 44  2  0  0  0  0
 44 45  1  0  0  0  0
 45 46  2  0  0  0  0
 13 47  1  0  0  0  0
 12 48  1  0  0  0  0
 11 49  1  0  0  0  0
 49 50  1  0  0  0  0
 50 51  1  0  0  0  0
 51 52  1  0  0  0  0
 51 53  2  0  0  0  0
M  END
>  <Name>
Verteporfin-Mac

>  <CAS #>
129497-78-5

>  <human Clearance (mL/min/kg)>
1.6

>  <Primary mechanism (metabolic, biliary or renal)>
biliary

>  <seqId>
971.0

>  <Code (mechanism and clearance degree index)>
B1

>  < Five M1 and R1 test groups>
34

>  <formamide>
0

>  <prodrug phosphates>
0

>  <VolSurf_V>
1525.25

>  <VolSurf_S>
983.593

>  <VolSurf_R>
1.55069

>  <VolSurf_G>
1.90176

>  <VolSurf_IW1>
0.0343583

>  <VolSurf_IW2>
0.0963281

>  <VolSurf_IW3>
0.265001

>  <VolSurf_IW4>
0.372324

>  <VolSurf_ID1>
0.0389306

>  <VolSurf_ID2>
0.0587684

>  <VolSurf_ID3>
0.0632155

>  <VolSurf_ID4>
0.0570428

>  <VolSurf_HL1>
2.37185

>  <VolSurf_HL2>
1.7605

>  <VolSurf_A>
4.29726

>  <VolSurf_CP>
0.81122

>  <VolSurf_POL>
75.1481

>  <VolSurf_MW>
719.802

>  <VolSurf_FLEX>
1.32981

>  <VolSurf_FLEX_RB>
0.06999

>  <VolSurf_NCC>
3.0

>  <VolSurf_LOGP n-Oct>
2.277

>  <VolSurf_LOGP c-Hex>
0.805

>  <VolSurf_PSA>
178.34

>  <VolSurf_HSA>
805.253

>  <VolSurf_PSAR>
0.181315

>  <VolSurf_PHSAR>
0.221471

>  <VolSurf_LgD5>
-3.78382

>  <VolSurf_LgD6>
-3.55737

>  <VolSurf_LgD7>
-3.52613

>  <VolSurf_LgD7.5>
-3.52276

>  <VolSurf_LgD8>
-3.51904

>  <VolSurf_LgD9>
-3.48166

>  <VolSurf_LgD10>
-3.22211

>  <VolSurf_AUS7.4>
0.0

>  <VolSurf_%FU4>
0.0

>  <VolSurf_%FU5>
0.0

>  <VolSurf_%FU6>
0.0

>  <VolSurf_%FU7>
0.0

>  <VolSurf_%FU8>
0.0

>  <VolSurf_%FU9>
0.0

>  <VolSurf_%FU10>
0.0

>  <ID>
464

>  <MOKAID>
465

>  <Clearance Route>
possible billary

>  <PC1>
-3.02724

>  <PC2>
-4.52613

$$$$
Verteporfin-Mad
  -OEChem-08301611272D

 53 58  0     1  0  0  0  0  0999 V2000
    2.4870   -9.7117    0.0000 O   0  0  0  0  0  0  0  0  0  0  0  0
    3.2882   -9.1133    0.0000 C   0  0  0  0  0  0  0  0  0  0  0  0
    4.2070   -9.5078    0.0000 O   0  0  0  0  0  0  0  0  0  0  0  0
    3.1705   -8.1202    0.0000 C   0  0  0  0  0  0  0  0  0  0  0  0
    3.9716   -7.5217    0.0000 C   0  0  0  0  0  0  0  0  0  0  0  0
    3.8539   -6.5287    0.0000 C   0  0  0  0  0  0  0  0  0  0  0  0
    2.4391   -5.4303    0.0000 C   0  0  0  0  0  0  0  0  0  0  0  0
    1.4458   -5.5460    0.0000 C   0  0  0  0  0  0  0  0  0  0  0  0
    3.0858   -4.6286    0.0000 C   0  0  0  0  0  0  0  0  0  0  0  0
    2.4794   -3.8335    0.0000 C   0  0  0  0  0  0  0  0  0  0  0  0
    4.5007   -5.7201    0.0000 C   0  0  0  0  0  0  0  0  0  0  0  0
    4.1167   -4.7701    0.0000 N   0  0  0  0  0  0  0  0  0  0  0  0
    5.3697   -6.2860    0.0000 C   0  0  0  0  0  0  0  0  0  0  0  0
    6.3197   -5.8414    0.0000 C   0  0  0  0  0  0  0  0  0  0  0  0
    7.0070   -6.6094    0.0000 C   0  0  0  0  0  0  0  0  0  0  0  0
    6.9367   -7.6069    0.0000 C   0  0  0  0  0  0  0  0  0  0  0  0
    7.7654   -8.1666    0.0000 C   0  0  0  0  0  0  0  0  0  0  0  0
    7.6951   -9.1641    0.0000 C   0  0  0  0  0  0  0  0  0  0  0  0
    8.5239   -9.7237    0.0000 O   0  0  0  0  0  0  0  0  0  0  0  0
    8.4536  -10.7213    0.0000 C   0  0  0  0  0  0  0  0  0  0  0  0
    6.7961   -9.6020    0.0000 O   0  0  0  0  0  0  0  0  0  0  0  0
    8.3746   -5.4573    0.0000 C   0  0  0  0  0  0  0  0  0  0  0  0
    9.3721   -5.5276    0.0000 C   0  0  0  0  0  0  0  0  0  0  0  0
    7.6873   -4.6893    0.0000 C   0  0  0  0  0  0  0  0  0  0  0  0
    8.0579   -3.5371    0.0000 C   0  0  0  0  0  0  0  0  0  0  0  0
    7.5122   -2.6681    0.0000 C   0  0  0  0  0  0  0  0  0  0  0  0
    6.4612   -2.5872    0.0000 N   0  0  0  0  0  0  0  0  0  0  0  0
    8.1118   -1.8327    0.0000 C   0  0  0  0  0  0  0  0  0  0  0  0
    6.6229   -0.8220    0.0000 C   0  0  0  0  0  0  0  0  0  0  0  0
    6.0165   -1.6576    0.0000 C   0  0  0  0  0  0  0  0  0  0  0  0
    5.1204   -1.1522    0.0000 C   0  0  0  0  0  0  0  0  0  0  0  0
    4.2108   -1.6576    0.0000 C   0  0  0  0  0  0  0  0  0  0  0  0
    3.4833   -0.9434    0.0000 C   0  0  0  0  0  0  0  0  0  0  0  0
    2.1897   -2.1830    0.0000 C   0  0  1  0  0  0  0  0  0  0  0  0
    2.9242   -2.9039    0.0000 C   0  0  0  0  0  0  0  0  0  0  0  0
    3.9347   -2.6478    0.0000 N   0  0  0  0  0  0  0  0  0  0  0  0
    1.9427   -1.2140    0.0000 C   0  0  0  0  0  0  0  0  0  0  0  0
    0.4515   -1.7114    0.0000 C   0  0  2  0  0  0  0  0  0  0  0  0
   -0.2581   -2.4160    0.0000 C   0  0  0  0  0  0  0  0  0  0  0  0
   -1.2231   -2.1538    0.0000 O   0  0  0  0  0  0  0  0  0  0  0  0
   -0.0026   -3.3829    0.0000 O   0  0  0  0  0  0  0  0  0  0  0  0
   -0.7122   -4.0875    0.0000 C   0  0  0  0  0  0  0  0  0  0  0  0
    0.0000    0.0000    0.0000 C   0  0  0  0  0  0  0  0  0  0  0  0
    1.3005    1.2328    0.0000 C   0  0  0  0  0  0  0  0  0  0  0  0
   -0.9619    0.2736    0.0000 C   0  0  0  0  0  0  0  0  0  0  0  0
   -1.2059    1.2433    0.0000 O   0  0  0  0  0  0  0  0  0  0  0  0
   -1.6797   -0.4227    0.0000 O   0  0  0  0  0  0  0  0  0  0  0  0
   -2.6415   -0.1491    0.0000 C   0  0  0  0  0  0  0  0  0  0  0  0
    3.0386    0.7546    0.0000 C   0  0  0  0  0  0  0  0  0  0  0  0
    6.4504    0.1630    0.0000 C   0  0  0  0  0  0  0  0  0  0  0  0
    9.0964   -1.6577    0.0000 C   0  0  0  0  0  0  0  0  0  0  0  0
    9.4371   -0.7175    0.0000 C   0  0  0  0  0  0  0  0  0  0  0  0
    6.6566   -4.8711    0.0000 N   0  0  0  0  0  0  0  0  0  0  0  0
  1  2  1  0  0  0  0
  2  3  2  0  0  0  0
  2  4  1  0  0  0  0
  4  5  1  0  0  0  0
  5  6  1  0  0  0  0
  6  7  2  0  0  0  0
  7  8  1  0  0  0  0
  7  9  1  0  0  0  0
  9 12  2  0  0  0  0
  9 10  1  0  0  0  0
 10 35  2  3  0  0  0
  6 11  1  0  0  0  0
 11 12  1  0  0  0  0
 11 13  2  3  0  0  0
 13 14  1  0  0  0  0
 14 15  2  0  0  0  0
 15 16  1  0  0  0  0
 16 17  1  0  0  0  0
 17 18  1  0  0  0  0
 18 19  1  0  0  0  0
 19 20  1  0  0  0  0
 18 21  2  0  0  0  0
 15 22  1  0  0  0  0
 22 23  1  0  0  0  0
 22 24  2  0  0  0  0
 24 53  1  0  0  0  0
 24 25  1  0  0  0  0
 25 26  2  3  0  0  0
 26 27  1  0  0  0  0
 27 30  2  0  0  0  0
 26 28  1  0  0  0  0
 28 29  2  0  0  0  0
 29 30  1  0  0  0  0
 30 31  1  0  0  0  0
 31 32  2  3  0  0  0
 32 36  1  0  0  0  0
 32 33  1  0  0  0  0
 33 34  1  0  0  0  0
 34 35  1  0  0  0  0
 35 36  1  0  0  0  0
 34 37  1  1  0  0  0
 34 38  1  0  0  0  0
 38 39  1  6  0  0  0
 39 40  2  0  0  0  0
 39 41  1  0  0  0  0
 41 42  1  0  0  0  0
 38 43  1  0  0  0  0
 43 44  2  0  0  0  0
 44 49  1  0  0  0  0
 43 45  1  0  0  0  0
 45 46  2  0  0  0  0
 45 47  1  0  0  0  0
 47 48  1  0  0  0  0
 33 49  2  0  0  0  0
 29 50  1  0  0  0  0
 28 51  1  0  0  0  0
 51 52  2  0  0  0  0
 14 53  1  0  0  0  0
M  END
>  <Name>
Verteporfin-Mad

>  <CAS #>


>  <human Clearance (mL/min/kg)>
1.73

>  <Primary mechanism (metabolic, biliary or renal)>
biliary

>  <seqId>
972.0

>  <Code (mechanism and clearance degree index)>
B1

>  < Five M1 and R1 test groups>
35

>  <formamide>
0

>  <prodrug phosphates>
0

>  <VolSurf_V>
1523.62

>  <VolSurf_S>
984.123

>  <VolSurf_R>
1.54821

>  <VolSurf_G>
1.90533

>  <VolSurf_IW1>
0.0352894

>  <VolSurf_IW2>
0.101368

>  <VolSurf_IW3>
0.258368

>  <VolSurf_IW4>
0.34908

>  <VolSurf_ID1>
0.0425997

>  <VolSurf_ID2>
0.0770582

>  <VolSurf_ID3>
0.102437

>  <VolSurf_ID4>
0.117763

>  <VolSurf_HL1>
3.00538

>  <VolSurf_HL2>
2.41304

>  <VolSurf_A>
5.57783

>  <VolSurf_CP>
0.478097

>  <VolSurf_POL>
75.1481

>  <VolSurf_MW>
719.802

>  <VolSurf_FLEX>
1.39999

>  <VolSurf_FLEX_RB>
0.0736837

>  <VolSurf_NCC>
3.0

>  <VolSurf_LOGP n-Oct>
2.277

>  <VolSurf_LOGP c-Hex>
0.805

>  <VolSurf_PSA>
178.34

>  <VolSurf_HSA>
805.783

>  <VolSurf_PSAR>
0.181217

>  <VolSurf_PHSAR>
0.221325

>  <VolSurf_LgD5>
-3.78852

>  <VolSurf_LgD6>
-3.55748

>  <VolSurf_LgD7>
-3.52613

>  <VolSurf_LgD7.5>
-3.52276

>  <VolSurf_LgD8>
-3.51904

>  <VolSurf_LgD9>
-3.48166

>  <VolSurf_LgD10>
-3.22211

>  <VolSurf_AUS7.4>
0.0

>  <VolSurf_%FU4>
0.0

>  <VolSurf_%FU5>
0.0

>  <VolSurf_%FU6>
0.0

>  <VolSurf_%FU7>
0.0

>  <VolSurf_%FU8>
0.0

>  <VolSurf_%FU9>
0.0

>  <VolSurf_%FU10>
0.0

>  <ID>
465

>  <MOKAID>
466

>  <Clearance Route>
possible billary

>  <PC1>
-2.98806

>  <PC2>
-4.52315

$$$$
Vildagliptin
  -OEChem-08301611272D

 24 27  0     1  0  0  0  0  0999 V2000
   -0.3690    4.0415    0.0000 N   0  0  0  0  0  0  0  0  0  0  0  0
   -0.3675    3.0415    0.0000 C   0  0  0  0  0  0  0  0  0  0  0  0
    0.4993    2.5428    0.0000 C   0  0  0  0  0  0  0  0  0  0  0  0
    0.5008    1.5428    0.0000 N   0  0  0  0  0  0  0  0  0  0  0  0
   -0.3065    0.9519    0.0000 C   0  0  0  0  0  0  0  0  0  0  0  0
   -0.0000   -0.0000    0.0000 C   0  0  0  0  0  0  0  0  0  0  0  0
    1.0015   -0.0000    0.0000 C   0  0  0  0  0  0  0  0  0  0  0  0
    1.3133    0.9519    0.0000 C   0  0  2  0  0  0  0  0  0  0  0  0
    2.2648    1.2596    0.0000 C   0  0  0  0  0  0  0  0  0  0  0  0
    3.2163    1.5672    0.0000 N   0  0  0  0  0  0  0  0  0  0  0  0
    1.3645    3.0441    0.0000 O   0  0  0  0  0  0  0  0  0  0  0  0
   -1.2358    4.5401    0.0000 C   0  0  0  0  0  0  0  0  0  0  0  0
   -2.2519    4.4789    0.0000 C   0  0  0  0  0  0  0  0  0  0  0  0
   -3.1140    4.9857    0.0000 C   0  0  2  0  0  0  0  0  0  0  0  0
   -4.1113    4.2516    0.0000 C   0  0  0  0  0  0  0  0  0  0  0  0
   -3.0121    4.3507    0.0000 C   0  0  2  0  0  0  0  0  0  0  0  0
   -2.1061    3.7819    0.0000 C   0  0  0  0  0  0  0  0  0  0  0  0
   -2.8107    5.4588    0.0000 C   0  0  0  0  0  0  0  0  0  0  0  0
   -1.9296    6.1798    0.0000 C   0  0  0  0  0  0  0  0  0  0  0  0
   -2.9276    6.0255    0.0000 C   0  0  0  0  0  0  0  0  0  0  0  0
   -1.0314    5.6026    0.0000 C   0  0  0  0  0  0  0  0  0  0  0  0
   -1.7222    7.1580    0.0000 O   0  0  0  0  0  0  0  0  0  0  0  0
   -3.9629    5.5142    0.0000 H   0  0  0  0  0  0  0  0  0  0  0  0
   -3.2453    3.3783    0.0000 H   0  0  0  0  0  0  0  0  0  0  0  0
  1  2  1  0  0  0  0
  2  3  1  0  0  0  0
  3  4  1  0  0  0  0
  4  8  1  0  0  0  0
  4  5  1  0  0  0  0
  5  6  1  0  0  0  0
  6  7  1  0  0  0  0
  7  8  1  0  0  0  0
  8  9  1  1  0  0  0
  9 10  3  0  0  0  0
  3 11  2  0  0  0  0
  1 12  1  0  0  0  0
 12 17  1  0  0  0  0
 12 21  1  0  0  0  0
 12 13  1  0  0  0  0
 13 14  1  0  0  0  0
 14 20  1  0  0  0  0
 14 15  1  0  0  0  0
 15 16  1  0  0  0  0
 16 17  1  0  0  0  0
 16 18  1  0  0  0  0
 18 19  1  0  0  0  0
 19 20  1  0  0  0  0
 19 21  1  0  0  0  0
 19 22  1  0  0  0  0
 14 23  1  1  0  0  0
 16 24  1  6  0  0  0
M  END
>  <Name>
Vildagliptin

>  <CAS #>
274901-16-5

>  <human Clearance (mL/min/kg)>
9.9

>  <Primary mechanism (metabolic, biliary or renal)>
metabolic

>  <seqId>
973.0

>  <Code (mechanism and clearance degree index)>
M1

>  < Five M1 and R1 test groups>
M1_5

>  <formamide>
0

>  <prodrug phosphates>
0

>  <VolSurf_V>
687.125

>  <VolSurf_S>
470.894

>  <VolSurf_R>
1.45919

>  <VolSurf_G>
1.39837

>  <VolSurf_IW1>
0.115626

>  <VolSurf_IW2>
0.317995

>  <VolSurf_IW3>
0.617812

>  <VolSurf_IW4>
0.867301

>  <VolSurf_ID1>
0.0589924

>  <VolSurf_ID2>
0.129574

>  <VolSurf_ID3>
0.277563

>  <VolSurf_ID4>
0.328671

>  <VolSurf_HL1>
2.85938

>  <VolSurf_HL2>
3.05369

>  <VolSurf_A>
5.15049

>  <VolSurf_CP>
0.492942

>  <VolSurf_POL>
35.073

>  <VolSurf_MW>
304.407

>  <VolSurf_FLEX>
1.81546

>  <VolSurf_FLEX_RB>
0.302576

>  <VolSurf_NCC>
1.0

>  <VolSurf_LOGP n-Oct>
0.171

>  <VolSurf_LOGP c-Hex>
1.459

>  <VolSurf_PSA>
87.68

>  <VolSurf_HSA>
383.214

>  <VolSurf_PSAR>
0.186199

>  <VolSurf_PHSAR>
0.228802

>  <VolSurf_LgD5>
-3.23626

>  <VolSurf_LgD6>
-2.8002

>  <VolSurf_LgD7>
-1.93752

>  <VolSurf_LgD7.5>
-1.45662

>  <VolSurf_LgD8>
-0.981843

>  <VolSurf_LgD9>
-0.195761

>  <VolSurf_LgD10>
0.116872

>  <VolSurf_AUS7.4>
0.407673

>  <VolSurf_%FU4>
7.53128E-4

>  <VolSurf_%FU5>
0.00753077

>  <VolSurf_%FU6>
0.0752567

>  <VolSurf_%FU7>
0.747504

>  <VolSurf_%FU8>
7.00385

>  <VolSurf_%FU9>
42.9593

>  <VolSurf_%FU10>
88.2782

>  <ID>
466

>  <MOKAID>
467

>  <Clearance Route>
uncertain

>  <PC1>
-0.41343199999999997

>  <PC2>
1.6348200000000002

$$$$
Viloxazine
  -OEChem-08301611272D

 17 18  0     1  0  0  0  0  0999 V2000
   -0.8594    4.5091    0.0000 C   0  0  0  0  0  0  0  0  0  0  0  0
    0.0059    4.0078    0.0000 C   0  0  0  0  0  0  0  0  0  0  0  0
    0.8726    4.5065    0.0000 O   0  0  0  0  0  0  0  0  0  0  0  0
    1.7379    4.0053    0.0000 C   0  0  0  0  0  0  0  0  0  0  0  0
    2.6054    4.5028    0.0000 C   0  0  0  0  0  0  0  0  0  0  0  0
    3.4729    4.0053    0.0000 C   0  0  0  0  0  0  0  0  0  0  0  0
    3.4729    3.0001    0.0000 C   0  0  0  0  0  0  0  0  0  0  0  0
    2.6054    2.4924    0.0000 C   0  0  0  0  0  0  0  0  0  0  0  0
    1.7379    3.0001    0.0000 C   0  0  0  0  0  0  0  0  0  0  0  0
    0.8704    2.5026    0.0000 O   0  0  0  0  0  0  0  0  0  0  0  0
    0.8675    1.5026    0.0000 C   0  0  0  0  0  0  0  0  0  0  0  0
    0.0000    1.0052    0.0000 C   0  0  3  0  0  0  0  0  0  0  0  0
    0.0000    0.0000    0.0000 C   0  0  0  0  0  0  0  0  0  0  0  0
   -0.8675   -0.4975    0.0000 N   0  0  0  0  0  0  0  0  0  0  0  0
   -1.7350    0.0000    0.0000 C   0  0  0  0  0  0  0  0  0  0  0  0
   -1.7350    1.0052    0.0000 C   0  0  0  0  0  0  0  0  0  0  0  0
   -0.8675    1.5129    0.0000 O   0  0  0  0  0  0  0  0  0  0  0  0
  1  2  1  0  0  0  0
  2  3  1  0  0  0  0
  3  4  1  0  0  0  0
  4  9  2  0  0  0  0
  4  5  1  0  0  0  0
  5  6  2  0  0  0  0
  6  7  1  0  0  0  0
  7  8  2  0  0  0  0
  8  9  1  0  0  0  0
  9 10  1  0  0  0  0
 10 11  1  0  0  0  0
 11 12  1  0  0  0  0
 12 17  1  0  0  0  0
 12 13  1  0  0  0  0
 13 14  1  0  0  0  0
 14 15  1  0  0  0  0
 15 16  1  0  0  0  0
 16 17  1  0  0  0  0
M  END
>  <Name>
Viloxazine

>  <CAS #>
46817-91-8

>  <human Clearance (mL/min/kg)>
2.1

>  <Primary mechanism (metabolic, biliary or renal)>
metabolic

>  <seqId>
974.0

>  <Code (mechanism and clearance degree index)>
M1

>  < Five M1 and R1 test groups>
M1_4

>  <formamide>
0

>  <prodrug phosphates>
0

>  <VolSurf_V>
587.25

>  <VolSurf_S>
412.181

>  <VolSurf_R>
1.42474

>  <VolSurf_G>
1.33993

>  <VolSurf_IW1>
0.0459395

>  <VolSurf_IW2>
0.173602

>  <VolSurf_IW3>
0.470924

>  <VolSurf_IW4>
0.893792

>  <VolSurf_ID1>
0.0595858

>  <VolSurf_ID2>
0.158413

>  <VolSurf_ID3>
0.212822

>  <VolSurf_ID4>
0.258528

>  <VolSurf_HL1>
1.72619

>  <VolSurf_HL2>
1.13542

>  <VolSurf_A>
4.99632

>  <VolSurf_CP>
0.528535

>  <VolSurf_POL>
28.69

>  <VolSurf_MW>
238.303

>  <VolSurf_FLEX>
1.43189

>  <VolSurf_FLEX_RB>
0.238648

>  <VolSurf_NCC>
1.0

>  <VolSurf_LOGP n-Oct>
1.305

>  <VolSurf_LOGP c-Hex>
0.845

>  <VolSurf_PSA>
58.97

>  <VolSurf_HSA>
353.211

>  <VolSurf_PSAR>
0.143068

>  <VolSurf_PHSAR>
0.166954

>  <VolSurf_LgD5>
-1.79864

>  <VolSurf_LgD6>
-1.06352

>  <VolSurf_LgD7>
-0.116257

>  <VolSurf_LgD7.5>
0.346848

>  <VolSurf_LgD8>
0.753405

>  <VolSurf_LgD9>
1.20589

>  <VolSurf_LgD10>
1.29401

>  <VolSurf_AUS7.4>
0.983175

>  <VolSurf_%FU4>
0.00389874

>  <VolSurf_%FU5>
0.0389737

>  <VolSurf_%FU6>
0.388375

>  <VolSurf_%FU7>
3.75258

>  <VolSurf_%FU8>
28.0518

>  <VolSurf_%FU9>
79.5872

>  <VolSurf_%FU10>
97.4993

>  <ID>
467

>  <MOKAID>
468

>  <Clearance Route>
metabolic

>  <PC1>
1.20696

>  <PC2>
2.01684

$$$$
Vinpocetine
  -OEChem-08301611272D

 27 31  0     1  0  0  0  0  0999 V2000
    4.3496    0.5044    0.0000 C   0  0  1  0  0  0  0  0  0  0  0  0
    3.4747   -0.0007    0.0000 C   0  0  0  0  0  0  0  0  0  0  0  0
    3.4756   -1.0062    0.0000 N   0  0  0  0  0  0  0  0  0  0  0  0
    1.7372   -1.0084    0.0000 C   0  0  0  0  0  0  0  0  0  0  0  0
    1.7404   -0.0024    0.0000 C   0  0  0  0  0  0  0  0  0  0  0  0
    2.6024    0.5091    0.0000 C   0  0  0  0  0  0  0  0  0  0  0  0
    2.6044    1.5141    0.0000 C   0  0  0  0  0  0  0  0  0  0  0  0
    3.4759    2.0175    0.0000 C   0  0  0  0  0  0  0  0  0  0  0  0
    4.3540    1.5099    0.0000 N   0  0  3  0  0  0  0  0  0  0  0  0
    5.2222    2.0116    0.0000 C   0  0  0  0  0  0  0  0  0  0  0  0
    6.0916    1.5023    0.0000 C   0  0  0  0  0  0  0  0  0  0  0  0
    6.0872    0.4967    0.0000 C   0  0  0  0  0  0  0  0  0  0  0  0
    5.2134    0.0006    0.0000 C   0  0  1  0  0  0  0  0  0  0  0  0
    5.2160   -1.0066    0.0000 C   0  0  0  0  0  0  0  0  0  0  0  0
    4.3446   -1.5087    0.0000 C   0  0  0  0  0  0  0  0  0  0  0  0
    4.3438   -2.5087    0.0000 C   0  0  0  0  0  0  0  0  0  0  0  0
    3.4774   -3.0080    0.0000 O   0  0  0  0  0  0  0  0  0  0  0  0
    5.2095   -3.0094    0.0000 O   0  0  0  0  0  0  0  0  0  0  0  0
    5.2087   -4.0094    0.0000 C   0  0  0  0  0  0  0  0  0  0  0  0
    6.0743   -4.5100    0.0000 C   0  0  0  0  0  0  0  0  0  0  0  0
    6.0783   -0.5014    0.0000 C   0  0  0  0  0  0  0  0  0  0  0  0
    6.9454   -0.0034    0.0000 C   0  0  0  0  0  0  0  0  0  0  0  0
    0.8720    0.5011    0.0000 C   0  0  0  0  0  0  0  0  0  0  0  0
    0.0000   -0.0000    0.0000 C   0  0  0  0  0  0  0  0  0  0  0  0
    0.0017   -1.0099    0.0000 C   0  0  0  0  0  0  0  0  0  0  0  0
    0.8708   -1.5089    0.0000 C   0  0  0  0  0  0  0  0  0  0  0  0
    3.4847    1.0063    0.0000 H   0  0  0  0  0  0  0  0  0  0  0  0
  1 13  1  0  0  0  0
  1  9  1  0  0  0  0
  1  2  1  0  0  0  0
  2  6  2  0  0  0  0
  2  3  1  0  0  0  0
  3 15  1  0  0  0  0
  3  4  1  0  0  0  0
  4 26  2  0  0  0  0
  4  5  1  0  0  0  0
  5  6  1  0  0  0  0
  6  7  1  0  0  0  0
  7  8  1  0  0  0  0
  8  9  1  0  0  0  0
  9 10  1  0  0  0  0
 10 11  1  0  0  0  0
 11 12  1  0  0  0  0
 12 13  1  0  0  0  0
 13 14  1  0  0  0  0
 14 15  2  0  0  0  0
 15 16  1  0  0  0  0
 16 17  2  0  0  0  0
 16 18  1  0  0  0  0
 18 19  1  0  0  0  0
 19 20  1  0  0  0  0
 13 21  1  6  0  0  0
 21 22  1  0  0  0  0
  5 23  2  0  0  0  0
 23 24  1  0  0  0  0
 24 25  2  0  0  0  0
 25 26  1  0  0  0  0
  1 27  1  6  0  0  0
M  END
>  <Name>
Vinpocetine

>  <CAS #>
42971-09-5

>  <human Clearance (mL/min/kg)>
6.1

>  <Primary mechanism (metabolic, biliary or renal)>
metabolic

>  <seqId>
979.0

>  <Code (mechanism and clearance degree index)>
M1

>  < Five M1 and R1 test groups>
M1_3

>  <formamide>
0

>  <prodrug phosphates>
0

>  <VolSurf_V>
790.0

>  <VolSurf_S>
525.313

>  <VolSurf_R>
1.50387

>  <VolSurf_G>
1.43309

>  <VolSurf_IW1>
0.0330406

>  <VolSurf_IW2>
0.161764

>  <VolSurf_IW3>
0.38257

>  <VolSurf_IW4>
0.44253

>  <VolSurf_ID1>
0.0259639

>  <VolSurf_ID2>
0.0923005

>  <VolSurf_ID3>
0.12454

>  <VolSurf_ID4>
0.136915

>  <VolSurf_HL1>
1.10289

>  <VolSurf_HL2>
0.925532

>  <VolSurf_A>
2.69279

>  <VolSurf_CP>
1.21795

>  <VolSurf_POL>
39.865

>  <VolSurf_MW>
350.454

>  <VolSurf_FLEX>
0.57513

>  <VolSurf_FLEX_RB>
0.095855

>  <VolSurf_NCC>
0.0

>  <VolSurf_LOGP n-Oct>
4.234

>  <VolSurf_LOGP c-Hex>
3.954

>  <VolSurf_PSA>
32.55

>  <VolSurf_HSA>
492.763

>  <VolSurf_PSAR>
0.0619631

>  <VolSurf_PHSAR>
0.0660561

>  <VolSurf_LgD5>
2.47302

>  <VolSurf_LgD6>
3.40403

>  <VolSurf_LgD7>
4.03618

>  <VolSurf_LgD7.5>
4.16121

>  <VolSurf_LgD8>
4.20963

>  <VolSurf_LgD9>
4.2315

>  <VolSurf_LgD10>
4.23375

>  <VolSurf_AUS7.4>
1.91388

>  <VolSurf_%FU4>
0.172932

>  <VolSurf_%FU5>
1.70281

>  <VolSurf_%FU6>
14.7653

>  <VolSurf_%FU7>
63.401

>  <VolSurf_%FU8>
94.5424

>  <VolSurf_%FU9>
99.426

>  <VolSurf_%FU10>
99.9423

>  <ID>
468

>  <MOKAID>
469

>  <Clearance Route>
metabolic

>  <PC1>
4.59058

>  <PC2>
-0.34694200000000003

$$$$
Voriconazole
  -OEChem-08301611272D

 25 27  0     1  0  0  0  0  0999 V2000
    0.0015   -1.9975    0.0000 C   0  0  0  0  0  0  0  0  0  0  0  0
    0.8675   -1.4975    0.0000 C   0  0  1  0  0  0  0  0  0  0  0  0
    0.8675   -0.4975    0.0000 C   0  0  0  0  0  0  0  0  0  0  0  0
    1.7350    0.0000    0.0000 N   0  0  0  0  0  0  0  0  0  0  0  0
    1.7350    1.0052    0.0000 C   0  0  0  0  0  0  0  0  0  0  0  0
    0.8675    1.5129    0.0000 N   0  0  0  0  0  0  0  0  0  0  0  0
    0.0000    1.0052    0.0000 C   0  0  0  0  0  0  0  0  0  0  0  0
    0.0000    0.0000    0.0000 C   0  0  0  0  0  0  0  0  0  0  0  0
   -0.8653   -0.5013    0.0000 F   0  0  0  0  0  0  0  0  0  0  0  0
    1.7335   -1.9975    0.0000 C   0  0  2  0  0  0  0  0  0  0  0  0
    2.5996   -2.4975    0.0000 O   0  0  0  0  0  0  0  0  0  0  0  0
    2.2335   -1.1315    0.0000 C   0  0  0  0  0  0  0  0  0  0  0  0
    3.2335   -1.1315    0.0000 N   0  0  0  0  0  0  0  0  0  0  0  0
    3.8231   -0.3233    0.0000 C   0  0  0  0  0  0  0  0  0  0  0  0
    4.7754   -0.6283    0.0000 N   0  0  0  0  0  0  0  0  0  0  0  0
    4.7769   -1.6298    0.0000 C   0  0  0  0  0  0  0  0  0  0  0  0
    3.8256   -1.9431    0.0000 N   0  0  0  0  0  0  0  0  0  0  0  0
    0.8585   -3.5130    0.0000 C   0  0  0  0  0  0  0  0  0  0  0  0
   -0.1415   -3.5145    0.0000 C   0  0  0  0  0  0  0  0  0  0  0  0
   -0.6453   -4.3784    0.0000 C   0  0  0  0  0  0  0  0  0  0  0  0
   -0.1439   -5.2496    0.0000 C   0  0  0  0  0  0  0  0  0  0  0  0
   -0.6478   -6.1134    0.0000 F   0  0  0  0  0  0  0  0  0  0  0  0
    0.8612   -5.2570    0.0000 C   0  0  0  0  0  0  0  0  0  0  0  0
    1.3599   -4.3843    0.0000 C   0  0  0  0  0  0  0  0  0  0  0  0
    2.3599   -4.3828    0.0000 F   0  0  0  0  0  0  0  0  0  0  0  0
  2  1  1  1  0  0  0
  2  3  1  0  0  0  0
  3  8  2  0  0  0  0
  3  4  1  0  0  0  0
  4  5  2  0  0  0  0
  5  6  1  0  0  0  0
  6  7  2  0  0  0  0
  7  8  1  0  0  0  0
  8  9  1  0  0  0  0
  2 10  1  0  0  0  0
 10 11  1  1  0  0  0
 10 12  1  0  0  0  0
 12 13  1  0  0  0  0
 13 17  1  0  0  0  0
 13 14  1  0  0  0  0
 14 15  2  0  0  0  0
 15 16  1  0  0  0  0
 16 17  2  0  0  0  0
 10 18  1  0  0  0  0
 18 24  2  0  0  0  0
 18 19  1  0  0  0  0
 19 20  2  0  0  0  0
 20 21  1  0  0  0  0
 21 22  1  0  0  0  0
 21 23  2  0  0  0  0
 23 24  1  0  0  0  0
 24 25  1  0  0  0  0
M  END
>  <Name>
Voriconazole

>  <CAS #>
137234-62-9

>  <human Clearance (mL/min/kg)>
8.3

>  <Primary mechanism (metabolic, biliary or renal)>
metabolic

>  <seqId>
982.0

>  <Code (mechanism and clearance degree index)>
M1

>  < Five M1 and R1 test groups>
M1_1

>  <formamide>
0

>  <prodrug phosphates>
0

>  <VolSurf_V>
666.5

>  <VolSurf_S>
456.498

>  <VolSurf_R>
1.46003

>  <VolSurf_G>
1.37604

>  <VolSurf_IW1>
0.038715

>  <VolSurf_IW2>
0.0853885

>  <VolSurf_IW3>
0.254476

>  <VolSurf_IW4>
0.902551

>  <VolSurf_ID1>
0.0704537

>  <VolSurf_ID2>
0.205288

>  <VolSurf_ID3>
0.315166

>  <VolSurf_ID4>
0.397983

>  <VolSurf_HL1>
10.0602

>  <VolSurf_HL2>
5.825

>  <VolSurf_A>
4.25661

>  <VolSurf_CP>
0.11376

>  <VolSurf_POL>
32.621

>  <VolSurf_MW>
349.31

>  <VolSurf_FLEX>
2.16104

>  <VolSurf_FLEX_RB>
0.308719

>  <VolSurf_NCC>
0.0

>  <VolSurf_LOGP n-Oct>
1.526

>  <VolSurf_LOGP c-Hex>
-2.862

>  <VolSurf_PSA>
89.96

>  <VolSurf_HSA>
366.538

>  <VolSurf_PSAR>
0.197066

>  <VolSurf_PHSAR>
0.245432

>  <VolSurf_LgD5>
1.51204

>  <VolSurf_LgD6>
1.52459

>  <VolSurf_LgD7>
1.52586

>  <VolSurf_LgD7.5>
1.52596

>  <VolSurf_LgD8>
1.52599

>  <VolSurf_LgD9>
1.526

>  <VolSurf_LgD10>
1.526

>  <VolSurf_AUS7.4>
2.0

>  <VolSurf_%FU4>
74.1614

>  <VolSurf_%FU5>
96.8354

>  <VolSurf_%FU6>
99.6764

>  <VolSurf_%FU7>
99.9676

>  <VolSurf_%FU8>
99.9967

>  <VolSurf_%FU9>
99.9996

>  <VolSurf_%FU10>
99.9991

>  <ID>
469

>  <MOKAID>
470

>  <Clearance Route>
metabolic

>  <PC1>
2.52299

>  <PC2>
0.459429

$$$$
Vortioxetine
  -OEChem-08301611272D

 21 23  0     0  0  0  0  0  0999 V2000
    6.0719    4.5162    0.0000 C   0  0  0  0  0  0  0  0  0  0  0  0
    5.2073    4.0137    0.0000 C   0  0  0  0  0  0  0  0  0  0  0  0
    4.3368    4.5164    0.0000 C   0  0  0  0  0  0  0  0  0  0  0  0
    3.4722    4.0139    0.0000 C   0  0  0  0  0  0  0  0  0  0  0  0
    3.4692    3.0139    0.0000 C   0  0  0  0  0  0  0  0  0  0  0  0
    2.6025    2.5152    0.0000 S   0  0  0  0  0  0  0  0  0  0  0  0
    1.7372    3.0165    0.0000 C   0  0  0  0  0  0  0  0  0  0  0  0
    0.8674    2.5126    0.0000 C   0  0  0  0  0  0  0  0  0  0  0  0
    0.0021    3.0139    0.0000 C   0  0  0  0  0  0  0  0  0  0  0  0
   -0.0023    4.0139    0.0000 C   0  0  0  0  0  0  0  0  0  0  0  0
    0.8675    4.5178    0.0000 C   0  0  0  0  0  0  0  0  0  0  0  0
    1.7417    4.0216    0.0000 C   0  0  0  0  0  0  0  0  0  0  0  0
    0.8674    1.5126    0.0000 N   0  0  0  0  0  0  0  0  0  0  0  0
    0.0000    1.0051    0.0000 C   0  0  0  0  0  0  0  0  0  0  0  0
    0.0000    0.0000    0.0000 C   0  0  0  0  0  0  0  0  0  0  0  0
    0.8674   -0.4976    0.0000 N   0  0  0  0  0  0  0  0  0  0  0  0
    1.7348    0.0000    0.0000 C   0  0  0  0  0  0  0  0  0  0  0  0
    1.7348    1.0051    0.0000 C   0  0  0  0  0  0  0  0  0  0  0  0
    4.3398    2.5112    0.0000 C   0  0  0  0  0  0  0  0  0  0  0  0
    4.3368    1.5112    0.0000 C   0  0  0  0  0  0  0  0  0  0  0  0
    5.2132    3.0086    0.0000 C   0  0  0  0  0  0  0  0  0  0  0  0
  1  2  1  0  0  0  0
  2 21  1  0  0  0  0
  2  3  2  0  0  0  0
  3  4  1  0  0  0  0
  4  5  2  0  0  0  0
  5  6  1  0  0  0  0
  6  7  1  0  0  0  0
  7 12  1  0  0  0  0
  7  8  2  0  0  0  0
  8  9  1  0  0  0  0
  9 10  2  0  0  0  0
 10 11  1  0  0  0  0
 11 12  2  0  0  0  0
  8 13  1  0  0  0  0
 13 18  1  0  0  0  0
 13 14  1  0  0  0  0
 14 15  1  0  0  0  0
 15 16  1  0  0  0  0
 16 17  1  0  0  0  0
 17 18  1  0  0  0  0
  5 19  1  0  0  0  0
 19 20  1  0  0  0  0
 19 21  2  0  0  0  0
M  END
>  <Name>
Vortioxetine

>  <CAS #>
508233-74-7

>  <human Clearance (mL/min/kg)>
5.8

>  <Primary mechanism (metabolic, biliary or renal)>
metabolic

>  <seqId>
984.0

>  <Code (mechanism and clearance degree index)>
M1

>  < Five M1 and R1 test groups>
M1_2

>  <formamide>
0

>  <prodrug phosphates>
0

>  <VolSurf_V>
728.875

>  <VolSurf_S>
493.367

>  <VolSurf_R>
1.47735

>  <VolSurf_G>
1.41376

>  <VolSurf_IW1>
0.0581123

>  <VolSurf_IW2>
0.342286

>  <VolSurf_IW3>
1.17762

>  <VolSurf_IW4>
1.57578

>  <VolSurf_ID1>
0.0334682

>  <VolSurf_ID2>
0.0636388

>  <VolSurf_ID3>
0.0639937

>  <VolSurf_ID4>
0.0783264

>  <VolSurf_HL1>
0.187273

>  <VolSurf_HL2>
0.120805

>  <VolSurf_A>
8.12392

>  <VolSurf_CP>
7.33653

>  <VolSurf_POL>
38.781

>  <VolSurf_MW>
299.453

>  <VolSurf_FLEX>
1.21652

>  <VolSurf_FLEX_RB>
0.243303

>  <VolSurf_NCC>
1.0

>  <VolSurf_LOGP n-Oct>
4.768

>  <VolSurf_LOGP c-Hex>
2.642

>  <VolSurf_PSA>
38.36

>  <VolSurf_HSA>
455.007

>  <VolSurf_PSAR>
0.0777515

>  <VolSurf_PHSAR>
0.0843064

>  <VolSurf_LgD5>
1.45433

>  <VolSurf_LgD6>
1.87282

>  <VolSurf_LgD7>
2.72601

>  <VolSurf_LgD7.5>
3.20483

>  <VolSurf_LgD8>
3.676

>  <VolSurf_LgD9>
4.43746

>  <VolSurf_LgD10>
4.72107

>  <VolSurf_AUS7.4>
0.4553

>  <VolSurf_%FU4>
8.75956E-4

>  <VolSurf_%FU5>
0.00875902

>  <VolSurf_%FU6>
0.0875214

>  <VolSurf_%FU7>
0.868374

>  <VolSurf_%FU8>
8.05427

>  <VolSurf_%FU9>
46.6945

>  <VolSurf_%FU10>
89.7539

>  <ID>
470

>  <MOKAID>
471

>  <Clearance Route>
metabolic

>  <PC1>
3.89923

>  <PC2>
0.402672

$$$$
Warfarin
  -OEChem-08301611272D

 23 25  0     1  0  0  0  0  0999 V2000
    5.2001   -3.0082    0.0000 C   0  0  0  0  0  0  0  0  0  0  0  0
    5.2028   -2.0082    0.0000 C   0  0  0  0  0  0  0  0  0  0  0  0
    6.0702   -1.5105    0.0000 O   0  0  0  0  0  0  0  0  0  0  0  0
    4.3381   -1.5059    0.0000 C   0  0  0  0  0  0  0  0  0  0  0  0
    4.3408   -0.5059    0.0000 C   0  0  3  0  0  0  0  0  0  0  0  0
    3.4761   -0.0036    0.0000 C   0  0  0  0  0  0  0  0  0  0  0  0
    2.6026   -0.5032    0.0000 C   0  0  0  0  0  0  0  0  0  0  0  0
    2.5998   -1.5032    0.0000 O   0  0  0  0  0  0  0  0  0  0  0  0
    1.7360   -0.0012    0.0000 C   0  0  0  0  0  0  0  0  0  0  0  0
    0.8680   -0.4978    0.0000 C   0  0  0  0  0  0  0  0  0  0  0  0
    0.0000    0.0000    0.0000 C   0  0  0  0  0  0  0  0  0  0  0  0
    0.0000    1.0057    0.0000 C   0  0  0  0  0  0  0  0  0  0  0  0
    0.8680    1.5138    0.0000 C   0  0  0  0  0  0  0  0  0  0  0  0
    1.7374    1.0057    0.0000 C   0  0  0  0  0  0  0  0  0  0  0  0
    2.6052    1.5109    0.0000 O   0  0  0  0  0  0  0  0  0  0  0  0
    3.4774    1.0034    0.0000 C   0  0  0  0  0  0  0  0  0  0  0  0
    4.3446    1.5014    0.0000 O   0  0  0  0  0  0  0  0  0  0  0  0
    5.2081   -0.0082    0.0000 C   0  0  0  0  0  0  0  0  0  0  0  0
    5.2079    0.9970    0.0000 C   0  0  0  0  0  0  0  0  0  0  0  0
    6.0752    1.4947    0.0000 C   0  0  0  0  0  0  0  0  0  0  0  0
    6.9429    0.9974    0.0000 C   0  0  0  0  0  0  0  0  0  0  0  0
    6.9431   -0.0078    0.0000 C   0  0  0  0  0  0  0  0  0  0  0  0
    6.0758   -0.5157    0.0000 C   0  0  0  0  0  0  0  0  0  0  0  0
  1  2  1  0  0  0  0
  2  3  2  0  0  0  0
  2  4  1  0  0  0  0
  4  5  1  0  0  0  0
  5  6  1  0  0  0  0
  6 16  1  0  0  0  0
  6  7  2  0  0  0  0
  7  8  1  0  0  0  0
  7  9  1  0  0  0  0
  9 14  2  0  0  0  0
  9 10  1  0  0  0  0
 10 11  2  0  0  0  0
 11 12  1  0  0  0  0
 12 13  2  0  0  0  0
 13 14  1  0  0  0  0
 14 15  1  0  0  0  0
 15 16  1  0  0  0  0
 16 17  2  0  0  0  0
  5 18  1  0  0  0  0
 18 23  2  0  0  0  0
 18 19  1  0  0  0  0
 19 20  2  0  0  0  0
 20 21  1  0  0  0  0
 21 22  2  0  0  0  0
 22 23  1  0  0  0  0
M  END
>  <Name>
Warfarin

>  <CAS #>
81-81-2

>  <human Clearance (mL/min/kg)>
0.06

>  <Primary mechanism (metabolic, biliary or renal)>
metabolic

>  <seqId>
985.0

>  <Code (mechanism and clearance degree index)>
M1

>  < Five M1 and R1 test groups>
M1_4

>  <formamide>
0

>  <prodrug phosphates>
0

>  <VolSurf_V>
696.375

>  <VolSurf_S>
473.439

>  <VolSurf_R>
1.47089

>  <VolSurf_G>
1.391

>  <VolSurf_IW1>
0.0456754

>  <VolSurf_IW2>
0.161043

>  <VolSurf_IW3>
0.478374

>  <VolSurf_IW4>
0.69191

>  <VolSurf_ID1>
0.0301846

>  <VolSurf_ID2>
0.0830715

>  <VolSurf_ID3>
0.120343

>  <VolSurf_ID4>
0.195038

>  <VolSurf_HL1>
2.69478

>  <VolSurf_HL2>
2.80451

>  <VolSurf_A>
4.07048

>  <VolSurf_CP>
0.72335

>  <VolSurf_POL>
32.804

>  <VolSurf_MW>
307.32

>  <VolSurf_FLEX>
1.22967

>  <VolSurf_FLEX_RB>
0.245933

>  <VolSurf_NCC>
1.0

>  <VolSurf_LOGP n-Oct>
2.609

>  <VolSurf_LOGP c-Hex>
1.196

>  <VolSurf_PSA>
66.43

>  <VolSurf_HSA>
407.009

>  <VolSurf_PSAR>
0.140314

>  <VolSurf_PHSAR>
0.163215

>  <VolSurf_LgD5>
2.28993

>  <VolSurf_LgD6>
1.53657

>  <VolSurf_LgD7>
0.584031

>  <VolSurf_LgD7.5>
0.116849

>  <VolSurf_LgD8>
-0.298879

>  <VolSurf_LgD9>
-0.78001

>  <VolSurf_LgD10>
-0.878534

>  <VolSurf_AUS7.4>
0.0275117

>  <VolSurf_%FU4>
90.2076

>  <VolSurf_%FU5>
47.9493

>  <VolSurf_%FU6>
8.435

>  <VolSurf_%FU7>
0.912795

>  <VolSurf_%FU8>
0.0920355

>  <VolSurf_%FU9>
0.00921118

>  <VolSurf_%FU10>
9.21195E-4

>  <ID>
471

>  <MOKAID>
472

>  <Clearance Route>
metabolic

>  <PC1>
0.710341

>  <PC2>
0.265112

$$$$
Zalcitabine
  -OEChem-08301611272D

 15 16  0     1  0  0  0  0  0999 V2000
    0.8675   -1.4975    0.0000 N   0  0  0  0  0  0  0  0  0  0  0  0
    0.8675   -0.4975    0.0000 C   0  0  0  0  0  0  0  0  0  0  0  0
    1.7350    0.0000    0.0000 N   0  0  0  0  0  0  0  0  0  0  0  0
    1.7350    1.0052    0.0000 C   0  0  0  0  0  0  0  0  0  0  0  0
    2.6025    1.5026    0.0000 O   0  0  0  0  0  0  0  0  0  0  0  0
    0.8675    1.5129    0.0000 N   0  0  0  0  0  0  0  0  0  0  0  0
    0.0000    1.0052    0.0000 C   0  0  0  0  0  0  0  0  0  0  0  0
    0.0000    0.0000    0.0000 C   0  0  0  0  0  0  0  0  0  0  0  0
    0.8675    2.5129    0.0000 C   0  0  1  0  0  0  0  0  0  0  0  0
    1.6784    3.0982    0.0000 C   0  0  0  0  0  0  0  0  0  0  0  0
    1.3693    4.0508    0.0000 C   0  0  0  0  0  0  0  0  0  0  0  0
    0.3676    4.0536    0.0000 C   0  0  1  0  0  0  0  0  0  0  0  0
   -0.2187    4.8638    0.0000 C   0  0  0  0  0  0  0  0  0  0  0  0
   -1.2134    4.7611    0.0000 O   0  0  0  0  0  0  0  0  0  0  0  0
    0.0563    3.0984    0.0000 O   0  0  0  0  0  0  0  0  0  0  0  0
  1  2  1  0  0  0  0
  2  8  1  0  0  0  0
  2  3  2  0  0  0  0
  3  4  1  0  0  0  0
  4  5  2  0  0  0  0
  4  6  1  0  0  0  0
  6  7  1  0  0  0  0
  7  8  2  0  0  0  0
  9  6  1  6  0  0  0
  9 15  1  0  0  0  0
  9 10  1  0  0  0  0
 10 11  1  0  0  0  0
 11 12  1  0  0  0  0
 12 13  1  6  0  0  0
 13 14  1  0  0  0  0
 12 15  1  0  0  0  0
M  END
>  <Name>
Zalcitabine

>  <CAS #>
7481-89-2

>  <human Clearance (mL/min/kg)>
5.6

>  <Primary mechanism (metabolic, biliary or renal)>
renal

>  <seqId>
990.0

>  <Code (mechanism and clearance degree index)>
R1

>  < Five M1 and R1 test groups>
R1_3

>  <formamide>
0

>  <prodrug phosphates>
0

>  <VolSurf_V>
457.0

>  <VolSurf_S>
336.054

>  <VolSurf_R>
1.3599

>  <VolSurf_G>
1.26757

>  <VolSurf_IW1>
0.0766013

>  <VolSurf_IW2>
0.16442

>  <VolSurf_IW3>
0.334739

>  <VolSurf_IW4>
0.900152

>  <VolSurf_ID1>
0.0596594

>  <VolSurf_ID2>
0.21025

>  <VolSurf_ID3>
0.283979

>  <VolSurf_ID4>
0.337433

>  <VolSurf_HL1>
5.38983

>  <VolSurf_HL2>
4.075

>  <VolSurf_A>
2.73948

>  <VolSurf_CP>
0.293753

>  <VolSurf_POL>
20.506

>  <VolSurf_MW>
211.218

>  <VolSurf_FLEX>
0.536024

>  <VolSurf_FLEX_RB>
0.134006

>  <VolSurf_NCC>
0.0

>  <VolSurf_LOGP n-Oct>
-0.964

>  <VolSurf_LOGP c-Hex>
-3.275

>  <VolSurf_PSA>
91.49

>  <VolSurf_HSA>
244.564

>  <VolSurf_PSAR>
0.272248

>  <VolSurf_PHSAR>
0.374095

>  <VolSurf_LgD5>
-1.01518

>  <VolSurf_LgD6>
-0.969399

>  <VolSurf_LgD7>
-0.964543

>  <VolSurf_LgD7.5>
-0.964172

>  <VolSurf_LgD8>
-0.964056

>  <VolSurf_LgD9>
-0.964023

>  <VolSurf_LgD10>
-0.964172

>  <VolSurf_AUS7.4>
2.0

>  <VolSurf_%FU4>
44.4205

>  <VolSurf_%FU5>
88.8793

>  <VolSurf_%FU6>
98.7642

>  <VolSurf_%FU7>
99.875

>  <VolSurf_%FU8>
99.9871

>  <VolSurf_%FU9>
99.9948

>  <VolSurf_%FU10>
99.9604

>  <ID>
472

>  <MOKAID>
473

>  <Clearance Route>
uncertain

>  <PC1>
0.674216

>  <PC2>
3.4234199999999997

$$$$
Zaleplon
  -OEChem-08301611272D

 23 25  0     0  0  0  0  0  0999 V2000
    3.4513    5.0232    0.0000 C   0  0  0  0  0  0  0  0  0  0  0  0
    2.5882    4.5181    0.0000 C   0  0  0  0  0  0  0  0  0  0  0  0
    2.5941    3.5181    0.0000 N   0  0  0  0  0  0  0  0  0  0  0  0
    3.4631    3.0232    0.0000 C   0  0  0  0  0  0  0  0  0  0  0  0
    3.4690    2.0232    0.0000 O   0  0  0  0  0  0  0  0  0  0  0  0
    4.3261    3.5283    0.0000 C   0  0  0  0  0  0  0  0  0  0  0  0
    1.7311    3.0130    0.0000 C   0  0  0  0  0  0  0  0  0  0  0  0
    0.8591    3.5130    0.0000 C   0  0  0  0  0  0  0  0  0  0  0  0
   -0.0041    3.0080    0.0000 C   0  0  0  0  0  0  0  0  0  0  0  0
   -0.0040    2.0079    0.0000 C   0  0  0  0  0  0  0  0  0  0  0  0
    0.8680    1.5079    0.0000 C   0  0  0  0  0  0  0  0  0  0  0  0
    1.7400    2.0079    0.0000 C   0  0  0  0  0  0  0  0  0  0  0  0
    0.8680    0.5079    0.0000 C   0  0  0  0  0  0  0  0  0  0  0  0
    0.0000    0.0000    0.0000 C   0  0  0  0  0  0  0  0  0  0  0  0
   -0.0000   -1.0058    0.0000 C   0  0  0  0  0  0  0  0  0  0  0  0
    0.8680   -1.5037    0.0000 N   0  0  0  0  0  0  0  0  0  0  0  0
    1.7360   -1.0071    0.0000 C   0  0  0  0  0  0  0  0  0  0  0  0
    2.6938   -1.3184    0.0000 C   0  0  0  0  0  0  0  0  0  0  0  0
    3.2858   -0.5036    0.0000 C   0  0  0  0  0  0  0  0  0  0  0  0
    2.6938    0.3110    0.0000 N   0  0  0  0  0  0  0  0  0  0  0  0
    1.7360   -0.0000    0.0000 N   0  0  0  0  0  0  0  0  0  0  0  0
    3.0028   -2.2695    0.0000 C   0  0  0  0  0  0  0  0  0  0  0  0
    3.3117   -3.2205    0.0000 N   0  0  0  0  0  0  0  0  0  0  0  0
  1  2  1  0  0  0  0
  2  3  1  0  0  0  0
  3  4  1  0  0  0  0
  4  5  2  0  0  0  0
  4  6  1  0  0  0  0
  3  7  1  0  0  0  0
  7 12  2  0  0  0  0
  7  8  1  0  0  0  0
  8  9  2  0  0  0  0
  9 10  1  0  0  0  0
 10 11  2  0  0  0  0
 11 12  1  0  0  0  0
 11 13  1  0  0  0  0
 13 21  1  0  0  0  0
 13 14  2  0  0  0  0
 14 15  1  0  0  0  0
 15 16  2  0  0  0  0
 16 17  1  0  0  0  0
 17 21  1  0  0  0  0
 17 18  2  0  0  0  0
 18 19  1  0  0  0  0
 19 20  2  0  0  0  0
 20 21  1  0  0  0  0
 18 22  1  0  0  0  0
 22 23  3  0  0  0  0
M  END
>  <Name>
Zaleplon

>  <CAS #>
151319-34-5

>  <human Clearance (mL/min/kg)>
16.0

>  <Primary mechanism (metabolic, biliary or renal)>
metabolic

>  <seqId>
991.0

>  <Code (mechanism and clearance degree index)>
M1

>  < Five M1 and R1 test groups>
M1_4

>  <formamide>
0

>  <prodrug phosphates>
0

>  <VolSurf_V>
680.125

>  <VolSurf_S>
461.189

>  <VolSurf_R>
1.47472

>  <VolSurf_G>
1.36932

>  <VolSurf_IW1>
0.0568679

>  <VolSurf_IW2>
0.214979

>  <VolSurf_IW3>
0.530995

>  <VolSurf_IW4>
0.655679

>  <VolSurf_ID1>
0.0332822

>  <VolSurf_ID2>
0.046579

>  <VolSurf_ID3>
0.0665635

>  <VolSurf_ID4>
0.0857436

>  <VolSurf_HL1>
0.703242

>  <VolSurf_HL2>
0.453427

>  <VolSurf_A>
2.53173

>  <VolSurf_CP>
5.75963

>  <VolSurf_POL>
33.321

>  <VolSurf_MW>
305.334

>  <VolSurf_FLEX>
1.01768

>  <VolSurf_FLEX_RB>
0.145383

>  <VolSurf_NCC>
0.0

>  <VolSurf_LOGP n-Oct>
1.814

>  <VolSurf_LOGP c-Hex>
-0.857

>  <VolSurf_PSA>
72.14

>  <VolSurf_HSA>
389.049

>  <VolSurf_PSAR>
0.156422

>  <VolSurf_PHSAR>
0.185426

>  <VolSurf_LgD5>
1.81386

>  <VolSurf_LgD6>
1.81399

>  <VolSurf_LgD7>
1.814

>  <VolSurf_LgD7.5>
1.814

>  <VolSurf_LgD8>
1.814

>  <VolSurf_LgD9>
1.814

>  <VolSurf_LgD10>
1.814

>  <VolSurf_AUS7.4>
2.0

>  <VolSurf_%FU4>
99.6782

>  <VolSurf_%FU5>
99.9677

>  <VolSurf_%FU6>
99.9968

>  <VolSurf_%FU7>
99.9997

>  <VolSurf_%FU8>
100.0

>  <VolSurf_%FU9>
100.0

>  <VolSurf_%FU10>
100.0

>  <ID>
473

>  <MOKAID>
474

>  <Clearance Route>
metabolic

>  <PC1>
3.87605

>  <PC2>
0.7679229999999999

$$$$
Zanamivir
  -OEChem-08301611272D

 23 23  0     1  0  0  0  0  0999 V2000
    2.5966   -1.5050    0.0000 C   0  0  0  0  0  0  0  0  0  0  0  0
    1.7313   -1.0038    0.0000 C   0  0  0  0  0  0  0  0  0  0  0  0
    0.8646   -1.5025    0.0000 O   0  0  0  0  0  0  0  0  0  0  0  0
    1.7328   -0.0038    0.0000 N   0  0  0  0  0  0  0  0  0  0  0  0
    0.8675    0.4975    0.0000 C   0  0  2  0  0  0  0  0  0  0  0  0
    0.0000    0.0000    0.0000 C   0  0  1  0  0  0  0  0  0  0  0  0
   -0.0000   -1.0000    0.0000 N   0  0  0  0  0  0  0  0  0  0  0  0
   -0.8660   -1.5000    0.0000 C   0  0  0  0  0  0  0  0  0  0  0  0
   -1.7321   -1.0000    0.0000 N   0  0  0  0  0  0  0  0  0  0  0  0
   -0.8660   -2.5000    0.0000 N   0  0  0  0  0  0  0  0  0  0  0  0
   -0.8675    0.4975    0.0000 C   0  0  0  0  0  0  0  0  0  0  0  0
   -0.8675    1.5027    0.0000 C   0  0  0  0  0  0  0  0  0  0  0  0
    0.0000    2.0104    0.0000 O   0  0  0  0  0  0  0  0  0  0  0  0
    0.8675    1.5027    0.0000 C   0  0  1  0  0  0  0  0  0  0  0  0
    1.7350    2.0001    0.0000 C   0  0  2  0  0  0  0  0  0  0  0  0
    2.5995    1.4976    0.0000 O   0  0  0  0  0  0  0  0  0  0  0  0
    1.7379    3.0001    0.0000 C   0  0  2  0  0  0  0  0  0  0  0  0
    0.8734    3.5027    0.0000 O   0  0  0  0  0  0  0  0  0  0  0  0
    2.6054    3.4976    0.0000 C   0  0  0  0  0  0  0  0  0  0  0  0
    2.6084    4.4976    0.0000 O   0  0  0  0  0  0  0  0  0  0  0  0
   -1.7350    2.0001    0.0000 C   0  0  0  0  0  0  0  0  0  0  0  0
   -1.7379    3.0001    0.0000 O   0  0  0  0  0  0  0  0  0  0  0  0
   -2.5995    1.4976    0.0000 O   0  0  0  0  0  0  0  0  0  0  0  0
  1  2  1  0  0  0  0
  2  3  2  0  0  0  0
  2  4  1  0  0  0  0
  5  4  1  6  0  0  0
  5 14  1  0  0  0  0
  5  6  1  0  0  0  0
  6  7  1  1  0  0  0
  7  8  1  0  0  0  0
  8  9  2  3  0  0  0
  8 10  1  0  0  0  0
  6 11  1  0  0  0  0
 11 12  2  0  0  0  0
 12 13  1  0  0  0  0
 14 13  1  1  0  0  0
 14 15  1  0  0  0  0
 15 16  1  1  0  0  0
 15 17  1  0  0  0  0
 17 18  1  6  0  0  0
 17 19  1  0  0  0  0
 19 20  1  0  0  0  0
 12 21  1  0  0  0  0
 21 22  2  0  0  0  0
 21 23  1  0  0  0  0
M  END
>  <Name>
Zanamivir

>  <CAS #>
139110-80-8

>  <human Clearance (mL/min/kg)>
1.6

>  <Primary mechanism (metabolic, biliary or renal)>
renal

>  <seqId>
993.0

>  <Code (mechanism and clearance degree index)>
R1

>  < Five M1 and R1 test groups>
R1_1

>  <formamide>
0

>  <prodrug phosphates>
0

>  <VolSurf_V>
652.875

>  <VolSurf_S>
464.564

>  <VolSurf_R>
1.40535

>  <VolSurf_G>
1.44216

>  <VolSurf_IW1>
0.066971

>  <VolSurf_IW2>
0.113173

>  <VolSurf_IW3>
0.263792

>  <VolSurf_IW4>
0.383846

>  <VolSurf_ID1>
0.106094

>  <VolSurf_ID2>
0.229427

>  <VolSurf_ID3>
0.406682

>  <VolSurf_ID4>
0.448266

>  <VolSurf_HL1>
63.1111

>  <VolSurf_HL2>
85.2667

>  <VolSurf_A>
6.26077

>  <VolSurf_CP>
0.0167453

>  <VolSurf_POL>
28.747

>  <VolSurf_MW>
332.31

>  <VolSurf_FLEX>
1.51827

>  <VolSurf_FLEX_RB>
0.126523

>  <VolSurf_NCC>
2.0

>  <VolSurf_LOGP n-Oct>
-3.78

>  <VolSurf_LOGP c-Hex>
-9.0

>  <VolSurf_PSA>
211.41

>  <VolSurf_HSA>
253.154

>  <VolSurf_PSAR>
0.455072

>  <VolSurf_PHSAR>
0.835103

>  <VolSurf_LgD5>
-6.08145

>  <VolSurf_LgD6>
-6.0802

>  <VolSurf_LgD7>
-6.08057

>  <VolSurf_LgD7.5>
-6.08177

>  <VolSurf_LgD8>
-6.08553

>  <VolSurf_LgD9>
-6.13107

>  <VolSurf_LgD10>
-6.37926

>  <VolSurf_AUS7.4>
0.0

>  <VolSurf_%FU4>
0.0

>  <VolSurf_%FU5>
0.0

>  <VolSurf_%FU6>
0.0

>  <VolSurf_%FU7>
0.0

>  <VolSurf_%FU8>
0.0

>  <VolSurf_%FU9>
0.0

>  <VolSurf_%FU10>
0.0

>  <ID>
474

>  <MOKAID>
475

>  <Clearance Route>
renal

>  <PC1>
-6.57788

>  <PC2>
2.50643

$$$$
Zidovudine
  -OEChem-08301611272D

 19 20  0     1  0  0  0  0  0999 V2000
   -0.8653   -0.5013    0.0000 C   0  0  0  0  0  0  0  0  0  0  0  0
    0.0000    0.0000    0.0000 C   0  0  0  0  0  0  0  0  0  0  0  0
   -0.0000    1.0052    0.0000 C   0  0  0  0  0  0  0  0  0  0  0  0
    0.8675    1.5129    0.0000 N   0  0  0  0  0  0  0  0  0  0  0  0
    0.8675    2.5129    0.0000 C   0  0  1  0  0  0  0  0  0  0  0  0
    1.6784    3.0982    0.0000 C   0  0  0  0  0  0  0  0  0  0  0  0
    1.3693    4.0508    0.0000 C   0  0  2  0  0  0  0  0  0  0  0  0
    1.9584    4.8589    0.0000 N   0  0  0  0  0  0  0  0  0  0  0  0
    1.5531    5.7731    0.0000 N   0  3  0  0  0  0  0  0  0  0  0  0
    1.1479    6.6873    0.0000 N   0  5  0  0  0  0  0  0  0  0  0  0
    0.3676    4.0536    0.0000 C   0  0  1  0  0  0  0  0  0  0  0  0
   -0.2187    4.8638    0.0000 C   0  0  0  0  0  0  0  0  0  0  0  0
   -1.2134    4.7611    0.0000 O   0  0  0  0  0  0  0  0  0  0  0  0
    0.0563    3.0984    0.0000 O   0  0  0  0  0  0  0  0  0  0  0  0
    1.7350    1.0052    0.0000 C   0  0  0  0  0  0  0  0  0  0  0  0
    2.6025    1.5026    0.0000 O   0  0  0  0  0  0  0  0  0  0  0  0
    1.7350    0.0000    0.0000 N   0  0  0  0  0  0  0  0  0  0  0  0
    0.8675   -0.4975    0.0000 C   0  0  0  0  0  0  0  0  0  0  0  0
    0.8675   -1.4975    0.0000 O   0  0  0  0  0  0  0  0  0  0  0  0
  1  2  1  0  0  0  0
  2 18  1  0  0  0  0
  2  3  2  0  0  0  0
  3  4  1  0  0  0  0
  5  4  1  6  0  0  0
  5 14  1  0  0  0  0
  5  6  1  0  0  0  0
  6  7  1  0  0  0  0
  7  8  1  1  0  0  0
  8  9  2  0  0  0  0
  9 10  2  0  0  0  0
  7 11  1  0  0  0  0
 11 12  1  6  0  0  0
 12 13  1  0  0  0  0
 11 14  1  0  0  0  0
  4 15  1  0  0  0  0
 15 16  2  0  0  0  0
 15 17  1  0  0  0  0
 17 18  1  0  0  0  0
 18 19  2  0  0  0  0
M  CHG  2   9   1  10  -1
M  END
>  <Name>
Zidovudine

>  <CAS #>
30516-87-1

>  <human Clearance (mL/min/kg)>
25.0

>  <Primary mechanism (metabolic, biliary or renal)>
metabolic

>  <seqId>
994.0

>  <Code (mechanism and clearance degree index)>
M1

>  < Five M1 and R1 test groups>
M1_1

>  <formamide>
0

>  <prodrug phosphates>
0

>  <VolSurf_V>
558.25

>  <VolSurf_S>
413.03

>  <VolSurf_R>
1.3516

>  <VolSurf_G>
1.4139

>  <VolSurf_IW1>
0.0705283

>  <VolSurf_IW2>
0.139737

>  <VolSurf_IW3>
0.312932

>  <VolSurf_IW4>
0.625822

>  <VolSurf_ID1>
0.0224031

>  <VolSurf_ID2>
0.0776689

>  <VolSurf_ID3>
0.157439

>  <VolSurf_ID4>
0.309848

>  <VolSurf_HL1>
5.27984

>  <VolSurf_HL2>
4.66667

>  <VolSurf_A>
1.02262

>  <VolSurf_CP>
0.652395

>  <VolSurf_POL>
23.831

>  <VolSurf_MW>
267.241

>  <VolSurf_FLEX>
0.746281

>  <VolSurf_FLEX_RB>
0.149256

>  <VolSurf_NCC>
1.0

>  <VolSurf_LOGP n-Oct>
-0.315

>  <VolSurf_LOGP c-Hex>
-3.33

>  <VolSurf_PSA>
131.96

>  <VolSurf_HSA>
281.07

>  <VolSurf_PSAR>
0.319492

>  <VolSurf_PHSAR>
0.469491

>  <VolSurf_LgD5>
-0.315018

>  <VolSurf_LgD6>
-0.315178

>  <VolSurf_LgD7>
-0.316776

>  <VolSurf_LgD7.5>
-0.320593

>  <VolSurf_LgD8>
-0.332444

>  <VolSurf_LgD9>
-0.464155

>  <VolSurf_LgD10>
-1.02203

>  <VolSurf_AUS7.4>
1.99861

>  <VolSurf_%FU4>
99.9996

>  <VolSurf_%FU5>
99.9959

>  <VolSurf_%FU6>
99.959

>  <VolSurf_%FU7>
99.5917

>  <VolSurf_%FU8>
96.0618

>  <VolSurf_%FU9>
70.9232

>  <VolSurf_%FU10>
19.607

>  <ID>
475

>  <MOKAID>
476

>  <Clearance Route>
uncertain

>  <PC1>
0.346059

>  <PC2>
1.68012

$$$$
Ziprasidone
  -OEChem-08301611272D

 28 32  0     0  0  0  0  0  0999 V2000
   -0.8675    1.5032    0.0000 Cl  0  0  0  0  0  0  0  0  0  0  0  0
    0.0000    1.0058    0.0000 C   0  0  0  0  0  0  0  0  0  0  0  0
    0.8680    1.5138    0.0000 C   0  0  0  0  0  0  0  0  0  0  0  0
    1.7360    1.0058    0.0000 C   0  0  0  0  0  0  0  0  0  0  0  0
    2.6938    1.3169    0.0000 N   0  0  0  0  0  0  0  0  0  0  0  0
    3.2858    0.5023    0.0000 C   0  0  0  0  0  0  0  0  0  0  0  0
    4.2858    0.5024    0.0000 O   0  0  0  0  0  0  0  0  0  0  0  0
    2.6938   -0.3125    0.0000 C   0  0  0  0  0  0  0  0  0  0  0  0
    1.7360   -0.0012    0.0000 C   0  0  0  0  0  0  0  0  0  0  0  0
    0.8680   -0.4978    0.0000 C   0  0  0  0  0  0  0  0  0  0  0  0
    0.0000    0.0000    0.0000 C   0  0  0  0  0  0  0  0  0  0  0  0
   -0.8653   -0.5013    0.0000 C   0  0  0  0  0  0  0  0  0  0  0  0
   -0.8639   -1.5013    0.0000 C   0  0  0  0  0  0  0  0  0  0  0  0
   -1.7292   -2.0025    0.0000 N   0  0  0  0  0  0  0  0  0  0  0  0
   -2.6031   -1.5063    0.0000 C   0  0  0  0  0  0  0  0  0  0  0  0
   -3.4728   -2.0101    0.0000 C   0  0  0  0  0  0  0  0  0  0  0  0
   -3.4686   -3.0101    0.0000 N   0  0  0  0  0  0  0  0  0  0  0  0
   -2.6032   -3.5113    0.0000 C   0  0  0  0  0  0  0  0  0  0  0  0
   -1.7335   -3.0074    0.0000 C   0  0  0  0  0  0  0  0  0  0  0  0
   -4.3339   -3.5114    0.0000 C   0  0  0  0  0  0  0  0  0  0  0  0
   -5.2546   -3.1031    0.0000 N   0  0  0  0  0  0  0  0  0  0  0  0
   -5.9272   -3.8525    0.0000 S   0  0  0  0  0  0  0  0  0  0  0  0
   -5.4225   -4.7240    0.0000 C   0  0  0  0  0  0  0  0  0  0  0  0
   -5.7374   -5.6791    0.0000 C   0  0  0  0  0  0  0  0  0  0  0  0
   -5.0591   -6.4215    0.0000 C   0  0  0  0  0  0  0  0  0  0  0  0
   -4.0756   -6.2109    0.0000 C   0  0  0  0  0  0  0  0  0  0  0  0
   -3.7704   -5.2579    0.0000 C   0  0  0  0  0  0  0  0  0  0  0  0
   -4.4378   -4.5131    0.0000 C   0  0  0  0  0  0  0  0  0  0  0  0
  1  2  1  0  0  0  0
  2 11  2  0  0  0  0
  2  3  1  0  0  0  0
  3  4  2  0  0  0  0
  4  9  1  0  0  0  0
  4  5  1  0  0  0  0
  5  6  1  0  0  0  0
  6  7  2  0  0  0  0
  6  8  1  0  0  0  0
  8  9  1  0  0  0  0
  9 10  2  0  0  0  0
 10 11  1  0  0  0  0
 11 12  1  0  0  0  0
 12 13  1  0  0  0  0
 13 14  1  0  0  0  0
 14 19  1  0  0  0  0
 14 15  1  0  0  0  0
 15 16  1  0  0  0  0
 16 17  1  0  0  0  0
 17 18  1  0  0  0  0
 18 19  1  0  0  0  0
 17 20  1  0  0  0  0
 20 28  1  0  0  0  0
 20 21  2  0  0  0  0
 21 22  1  0  0  0  0
 22 23  1  0  0  0  0
 23 28  2  0  0  0  0
 23 24  1  0  0  0  0
 24 25  2  0  0  0  0
 25 26  1  0  0  0  0
 26 27  2  0  0  0  0
 27 28  1  0  0  0  0
M  END
>  <Name>
Ziprasidone

>  <CAS #>
146939-27-7

>  <human Clearance (mL/min/kg)>
5.1

>  <Primary mechanism (metabolic, biliary or renal)>
metabolic

>  <seqId>
995.0

>  <Code (mechanism and clearance degree index)>
M1

>  < Five M1 and R1 test groups>
M1_3

>  <formamide>
0

>  <prodrug phosphates>
0

>  <VolSurf_V>
864.25

>  <VolSurf_S>
584.924

>  <VolSurf_R>
1.47754

>  <VolSurf_G>
1.53916

>  <VolSurf_IW1>
0.083036

>  <VolSurf_IW2>
0.251317

>  <VolSurf_IW3>
0.874382

>  <VolSurf_IW4>
1.26666

>  <VolSurf_ID1>
0.0181276

>  <VolSurf_ID2>
0.0214062

>  <VolSurf_ID3>
0.0140926

>  <VolSurf_ID4>
0.0540935

>  <VolSurf_HL1>
0.784291

>  <VolSurf_HL2>
0.623077

>  <VolSurf_A>
5.20916

>  <VolSurf_CP>
8.52447

>  <VolSurf_POL>
43.949

>  <VolSurf_MW>
412.935

>  <VolSurf_FLEX>
2.32261

>  <VolSurf_FLEX_RB>
0.580652

>  <VolSurf_NCC>
0.0

>  <VolSurf_LOGP n-Oct>
3.76

>  <VolSurf_LOGP c-Hex>
1.472

>  <VolSurf_PSA>
59.75

>  <VolSurf_HSA>
525.174

>  <VolSurf_PSAR>
0.10215

>  <VolSurf_PHSAR>
0.113772

>  <VolSurf_LgD5>
1.44351

>  <VolSurf_LgD6>
2.39718

>  <VolSurf_LgD7>
3.25188

>  <VolSurf_LgD7.5>
3.52826

>  <VolSurf_LgD8>
3.67029

>  <VolSurf_LgD9>
3.72103

>  <VolSurf_LgD10>
3.52484

>  <VolSurf_AUS7.4>
1.72991

>  <VolSurf_%FU4>
0.0449488

>  <VolSurf_%FU5>
0.447681

>  <VolSurf_%FU6>
4.30341

>  <VolSurf_%FU7>
31.0131

>  <VolSurf_%FU8>
81.3312

>  <VolSurf_%FU9>
91.4152

>  <VolSurf_%FU10>
58.1752

>  <ID>
476

>  <MOKAID>
477

>  <Clearance Route>
metabolic

>  <PC1>
4.0034

>  <PC2>
-1.4944899999999999

$$$$
Zolmitriptan
  -OEChem-08301611272D

 21 23  0     1  0  0  0  0  0999 V2000
    5.2680   -2.6306    0.0000 C   0  0  0  0  0  0  0  0  0  0  0  0
    4.2899   -2.4226    0.0000 N   0  0  0  0  0  0  0  0  0  0  0  0
    3.6207   -3.1657    0.0000 C   0  0  0  0  0  0  0  0  0  0  0  0
    3.9809   -1.4715    0.0000 C   0  0  0  0  0  0  0  0  0  0  0  0
    3.0028   -1.2636    0.0000 C   0  0  0  0  0  0  0  0  0  0  0  0
    2.6938   -0.3125    0.0000 C   0  0  0  0  0  0  0  0  0  0  0  0
    3.2858    0.5023    0.0000 C   0  0  0  0  0  0  0  0  0  0  0  0
    2.6938    1.3169    0.0000 N   0  0  0  0  0  0  0  0  0  0  0  0
    1.7360    1.0058    0.0000 C   0  0  0  0  0  0  0  0  0  0  0  0
    0.8680    1.5138    0.0000 C   0  0  0  0  0  0  0  0  0  0  0  0
    0.0000    1.0058    0.0000 C   0  0  0  0  0  0  0  0  0  0  0  0
    0.0000    0.0000    0.0000 C   0  0  0  0  0  0  0  0  0  0  0  0
   -0.8653   -0.5013    0.0000 C   0  0  0  0  0  0  0  0  0  0  0  0
   -0.8639   -1.5013    0.0000 C   0  0  1  0  0  0  0  0  0  0  0  0
   -0.0547   -2.0890    0.0000 C   0  0  0  0  0  0  0  0  0  0  0  0
   -0.3579   -3.0421    0.0000 O   0  0  0  0  0  0  0  0  0  0  0  0
   -1.3624   -3.0446    0.0000 C   0  0  0  0  0  0  0  0  0  0  0  0
   -1.9490   -3.8544    0.0000 O   0  0  0  0  0  0  0  0  0  0  0  0
   -1.6724   -2.0921    0.0000 N   0  0  0  0  0  0  0  0  0  0  0  0
    0.8680   -0.4978    0.0000 C   0  0  0  0  0  0  0  0  0  0  0  0
    1.7360   -0.0012    0.0000 C   0  0  0  0  0  0  0  0  0  0  0  0
  1  2  1  0  0  0  0
  2  3  1  0  0  0  0
  2  4  1  0  0  0  0
  4  5  1  0  0  0  0
  5  6  1  0  0  0  0
  6 21  1  0  0  0  0
  6  7  2  0  0  0  0
  7  8  1  0  0  0  0
  8  9  1  0  0  0  0
  9 21  2  0  0  0  0
  9 10  1  0  0  0  0
 10 11  2  0  0  0  0
 11 12  1  0  0  0  0
 12 13  1  0  0  0  0
 14 13  1  1  0  0  0
 14 19  1  0  0  0  0
 14 15  1  0  0  0  0
 15 16  1  0  0  0  0
 16 17  1  0  0  0  0
 17 18  2  0  0  0  0
 17 19  1  0  0  0  0
 12 20  2  0  0  0  0
 20 21  1  0  0  0  0
M  END
>  <Name>
Zolmitriptan

>  <CAS #>
139264-17-8

>  <human Clearance (mL/min/kg)>
6.7

>  <Primary mechanism (metabolic, biliary or renal)>
metabolic

>  <seqId>
998.0

>  <Code (mechanism and clearance degree index)>
M1

>  < Five M1 and R1 test groups>
M1_4

>  <formamide>
0

>  <prodrug phosphates>
0

>  <VolSurf_V>
697.375

>  <VolSurf_S>
485.462

>  <VolSurf_R>
1.43652

>  <VolSurf_G>
1.44225

>  <VolSurf_IW1>
0.105549

>  <VolSurf_IW2>
0.412373

>  <VolSurf_IW3>
1.23247

>  <VolSurf_IW4>
1.96431

>  <VolSurf_ID1>
0.0538888

>  <VolSurf_ID2>
0.107793

>  <VolSurf_ID3>
0.15027

>  <VolSurf_ID4>
0.182767

>  <VolSurf_HL1>
0.930041

>  <VolSurf_HL2>
0.761092

>  <VolSurf_A>
8.1137

>  <VolSurf_CP>
1.51571

>  <VolSurf_POL>
33.704

>  <VolSurf_MW>
288.365

>  <VolSurf_FLEX>
1.63151

>  <VolSurf_FLEX_RB>
0.233072

>  <VolSurf_NCC>
1.0

>  <VolSurf_LOGP n-Oct>
1.461

>  <VolSurf_LOGP c-Hex>
-2.159

>  <VolSurf_PSA>
61.77

>  <VolSurf_HSA>
423.692

>  <VolSurf_PSAR>
0.12724

>  <VolSurf_PHSAR>
0.14579

>  <VolSurf_LgD5>
-2.02452

>  <VolSurf_LgD6>
-1.12537

>  <VolSurf_LgD7>
-0.146471

>  <VolSurf_LgD7.5>
0.330129

>  <VolSurf_LgD8>
0.76546

>  <VolSurf_LgD9>
1.31606

>  <VolSurf_LgD10>
1.4441

>  <VolSurf_AUS7.4>
0.82359

>  <VolSurf_%FU4>
0.00252383

>  <VolSurf_%FU5>
0.0252326

>  <VolSurf_%FU6>
0.251754

>  <VolSurf_%FU7>
2.46176

>  <VolSurf_%FU8>
20.1526

>  <VolSurf_%FU9>
71.622

>  <VolSurf_%FU10>
96.1828

>  <ID>
477

>  <MOKAID>
478

>  <Clearance Route>
metabolic

>  <PC1>
0.910767

>  <PC2>
0.431512

$$$$
Zolpidem
  -OEChem-08301611272D

 23 25  0     0  0  0  0  0  0999 V2000
    1.9737    4.7052    0.0000 C   0  0  0  0  0  0  0  0  0  0  0  0
    2.6428    3.9621    0.0000 N   0  0  0  0  0  0  0  0  0  0  0  0
    3.6210    4.1699    0.0000 C   0  0  0  0  0  0  0  0  0  0  0  0
    2.3337    3.0110    0.0000 C   0  0  0  0  0  0  0  0  0  0  0  0
    1.3556    2.8031    0.0000 O   0  0  0  0  0  0  0  0  0  0  0  0
    3.0029    2.2678    0.0000 C   0  0  0  0  0  0  0  0  0  0  0  0
    2.6938    1.3168    0.0000 C   0  0  0  0  0  0  0  0  0  0  0  0
    3.2858    0.5022    0.0000 C   0  0  0  0  0  0  0  0  0  0  0  0
    2.6938   -0.3126    0.0000 N   0  0  0  0  0  0  0  0  0  0  0  0
    1.7360   -0.0013    0.0000 C   0  0  0  0  0  0  0  0  0  0  0  0
    0.8680   -0.4979    0.0000 C   0  0  0  0  0  0  0  0  0  0  0  0
    0.0000    0.0000    0.0000 C   0  0  0  0  0  0  0  0  0  0  0  0
   -0.0000    1.0058    0.0000 C   0  0  0  0  0  0  0  0  0  0  0  0
   -0.8675    1.5033    0.0000 C   0  0  0  0  0  0  0  0  0  0  0  0
    0.8680    1.5137    0.0000 C   0  0  0  0  0  0  0  0  0  0  0  0
    1.7360    1.0058    0.0000 N   0  0  0  0  0  0  0  0  0  0  0  0
    4.2858    0.5023    0.0000 C   0  0  0  0  0  0  0  0  0  0  0  0
    4.7858    1.3743    0.0000 C   0  0  0  0  0  0  0  0  0  0  0  0
    5.7858    1.3744    0.0000 C   0  0  0  0  0  0  0  0  0  0  0  0
    6.2909    0.5113    0.0000 C   0  0  0  0  0  0  0  0  0  0  0  0
    7.2909    0.5158    0.0000 C   0  0  0  0  0  0  0  0  0  0  0  0
    5.7910   -0.3607    0.0000 C   0  0  0  0  0  0  0  0  0  0  0  0
    4.7859   -0.3697    0.0000 C   0  0  0  0  0  0  0  0  0  0  0  0
  1  2  1  0  0  0  0
  2  3  1  0  0  0  0
  2  4  1  0  0  0  0
  4  5  2  0  0  0  0
  4  6  1  0  0  0  0
  6  7  1  0  0  0  0
  7 16  1  0  0  0  0
  7  8  2  0  0  0  0
  8  9  1  0  0  0  0
  9 10  2  0  0  0  0
 10 16  1  0  0  0  0
 10 11  1  0  0  0  0
 11 12  2  0  0  0  0
 12 13  1  0  0  0  0
 13 14  1  0  0  0  0
 13 15  2  0  0  0  0
 15 16  1  0  0  0  0
  8 17  1  0  0  0  0
 17 23  2  0  0  0  0
 17 18  1  0  0  0  0
 18 19  2  0  0  0  0
 19 20  1  0  0  0  0
 20 21  1  0  0  0  0
 20 22  2  0  0  0  0
 22 23  1  0  0  0  0
M  END
>  <Name>
Zolpidem

>  <CAS #>
82626-48-0

>  <human Clearance (mL/min/kg)>
4.3

>  <Primary mechanism (metabolic, biliary or renal)>
metabolic

>  <seqId>
999.0

>  <Code (mechanism and clearance degree index)>
M1

>  < Five M1 and R1 test groups>
M1_2

>  <formamide>
0

>  <prodrug phosphates>
0

>  <VolSurf_V>
747.125

>  <VolSurf_S>
501.094

>  <VolSurf_R>
1.49099

>  <VolSurf_G>
1.41175

>  <VolSurf_IW1>
0.0455947

>  <VolSurf_IW2>
0.222192

>  <VolSurf_IW3>
0.529692

>  <VolSurf_IW4>
0.747469

>  <VolSurf_ID1>
0.0235242

>  <VolSurf_ID2>
0.0685678

>  <VolSurf_ID3>
0.143561

>  <VolSurf_ID4>
0.22866

>  <VolSurf_HL1>
0.664587

>  <VolSurf_HL2>
0.647399

>  <VolSurf_A>
4.25499

>  <VolSurf_CP>
2.95102

>  <VolSurf_POL>
35.848

>  <VolSurf_MW>
307.389

>  <VolSurf_FLEX>
1.06365

>  <VolSurf_FLEX_RB>
0.132956

>  <VolSurf_NCC>
0.0

>  <VolSurf_LOGP n-Oct>
3.036

>  <VolSurf_LOGP c-Hex>
2.406

>  <VolSurf_PSA>
35.72

>  <VolSurf_HSA>
465.374

>  <VolSurf_PSAR>
0.0712841

>  <VolSurf_PHSAR>
0.0767555

>  <VolSurf_LgD5>
1.36155

>  <VolSurf_LgD6>
2.2811

>  <VolSurf_LgD7>
2.86888

>  <VolSurf_LgD7.5>
2.97589

>  <VolSurf_LgD8>
3.01608

>  <VolSurf_LgD9>
3.03397

>  <VolSurf_LgD10>
3.0358

>  <VolSurf_AUS7.4>
1.92917

>  <VolSurf_%FU4>
0.212511

>  <VolSurf_%FU5>
2.08523

>  <VolSurf_%FU6>
17.5573

>  <VolSurf_%FU7>
68.0474

>  <VolSurf_%FU8>
95.515

>  <VolSurf_%FU9>
99.5326

>  <VolSurf_%FU10>
99.9531

>  <ID>
478

>  <MOKAID>
479

>  <Clearance Route>
metabolic

>  <PC1>
3.8958699999999995

>  <PC2>
-0.387263

$$$$
Zonampanel
  -OEChem-08301611272D

 24 26  0     0  0  0  0  0  0999 V2000
    1.7285    4.0101    0.0000 O   0  0  0  0  0  0  0  0  0  0  0  0
    1.7312    3.0101    0.0000 C   0  0  0  0  0  0  0  0  0  0  0  0
    0.8665    2.5078    0.0000 O   0  0  0  0  0  0  0  0  0  0  0  0
    2.5985    2.5124    0.0000 C   0  0  0  0  0  0  0  0  0  0  0  0
    2.6012    1.5124    0.0000 N   0  0  0  0  0  0  0  0  0  0  0  0
    3.4735    1.0079    0.0000 C   0  0  0  0  0  0  0  0  0  0  0  0
    4.3394    1.5081    0.0000 O   0  0  0  0  0  0  0  0  0  0  0  0
    3.4748    0.0022    0.0000 C   0  0  0  0  0  0  0  0  0  0  0  0
    4.3408   -0.4979    0.0000 O   0  0  0  0  0  0  0  0  0  0  0  0
    2.6038   -0.4989    0.0000 N   0  0  0  0  0  0  0  0  0  0  0  0
    1.7371   -0.0000    0.0000 C   0  0  0  0  0  0  0  0  0  0  0  0
    0.8679   -0.4978    0.0000 C   0  0  0  0  0  0  0  0  0  0  0  0
    0.0000    0.0000    0.0000 C   0  0  0  0  0  0  0  0  0  0  0  0
   -0.0000    1.0057    0.0000 C   0  0  0  0  0  0  0  0  0  0  0  0
    0.8679    1.5135    0.0000 C   0  0  0  0  0  0  0  0  0  0  0  0
    1.7358    1.0057    0.0000 C   0  0  0  0  0  0  0  0  0  0  0  0
   -0.8675    1.5032    0.0000 N   0  0  0  0  0  0  0  0  0  0  0  0
   -0.9768    2.4975    0.0000 C   0  0  0  0  0  0  0  0  0  0  0  0
   -1.9547    2.7066    0.0000 C   0  0  0  0  0  0  0  0  0  0  0  0
   -2.4542    1.8387    0.0000 N   0  0  0  0  0  0  0  0  0  0  0  0
   -1.7847    1.0937    0.0000 C   0  0  0  0  0  0  0  0  0  0  0  0
   -0.8653   -0.5012    0.0000 N   0  0  0  0  0  0  0  0  0  0  0  0
   -0.8639   -1.5012    0.0000 O   0  0  0  0  0  0  0  0  0  0  0  0
   -1.7320   -0.0025    0.0000 O   0  0  0  0  0  0  0  0  0  0  0  0
  1  2  1  0  0  0  0
  2  3  2  0  0  0  0
  2  4  1  0  0  0  0
  4  5  1  0  0  0  0
  5 16  1  0  0  0  0
  5  6  1  0  0  0  0
  6  7  2  0  0  0  0
  6  8  1  0  0  0  0
  8  9  2  0  0  0  0
  8 10  1  0  0  0  0
 10 11  1  0  0  0  0
 11 16  2  0  0  0  0
 11 12  1  0  0  0  0
 12 13  2  0  0  0  0
 13 14  1  0  0  0  0
 14 15  2  0  0  0  0
 15 16  1  0  0  0  0
 14 17  1  0  0  0  0
 17 21  1  0  0  0  0
 17 18  1  0  0  0  0
 18 19  2  0  0  0  0
 19 20  1  0  0  0  0
 20 21  2  0  0  0  0
 13 22  1  0  0  0  0
 22 23  2  0  0  0  0
 22 24  2  0  0  0  0
M  END
>  <Name>
Zonampanel

>  <CAS #>
210245-80-0

>  <human Clearance (mL/min/kg)>
5.3

>  <Primary mechanism (metabolic, biliary or renal)>
renal

>  <seqId>
1000.0

>  <Code (mechanism and clearance degree index)>
R1

>  < Five M1 and R1 test groups>
R1_2

>  <formamide>
0

>  <prodrug phosphates>
0

>  <VolSurf_V>
620.0

>  <VolSurf_S>
430.248

>  <VolSurf_R>
1.44103

>  <VolSurf_G>
1.35351

>  <VolSurf_IW1>
0.0810679

>  <VolSurf_IW2>
0.136649

>  <VolSurf_IW3>
0.463633

>  <VolSurf_IW4>
0.966197

>  <VolSurf_ID1>
0.0779092

>  <VolSurf_ID2>
0.129529

>  <VolSurf_ID3>
0.177715

>  <VolSurf_ID4>
0.213697

>  <VolSurf_HL1>
6.62846

>  <VolSurf_HL2>
4.45055

>  <VolSurf_A>
3.88665

>  <VolSurf_CP>
0.337921

>  <VolSurf_POL>
28.587

>  <VolSurf_MW>
330.232

>  <VolSurf_FLEX>
0.815433

>  <VolSurf_FLEX_RB>
0.203858

>  <VolSurf_NCC>
1.0

>  <VolSurf_LOGP n-Oct>
-0.449

>  <VolSurf_LOGP c-Hex>
-4.402

>  <VolSurf_PSA>
148.09

>  <VolSurf_HSA>
282.158

>  <VolSurf_PSAR>
0.344197

>  <VolSurf_PHSAR>
0.524847

>  <VolSurf_LgD5>
-3.52444

>  <VolSurf_LgD6>
-3.75604

>  <VolSurf_LgD7>
-3.79091

>  <VolSurf_LgD7.5>
-3.7937

>  <VolSurf_LgD8>
-3.79459

>  <VolSurf_LgD9>
-3.79497

>  <VolSurf_LgD10>
-3.79514

>  <VolSurf_AUS7.4>
0.0

>  <VolSurf_%FU4>
0.0

>  <VolSurf_%FU5>
0.0

>  <VolSurf_%FU6>
0.0

>  <VolSurf_%FU7>
0.0

>  <VolSurf_%FU8>
0.0

>  <VolSurf_%FU9>
0.0

>  <VolSurf_%FU10>
0.0

>  <ID>
479

>  <MOKAID>
480

>  <Clearance Route>
renal

>  <PC1>
-3.6976199999999997

>  <PC2>
2.0573900000000003

$$$$
Zoniporide
  -OEChem-08301611272D

 24 27  0     0  0  0  0  0  0999 V2000
   -0.2153   -3.8519    0.0000 C   0  0  0  0  0  0  0  0  0  0  0  0
   -1.2099   -3.7483    0.0000 O   0  0  0  0  0  0  0  0  0  0  0  0
    0.1924   -4.7650    0.0000 N   0  0  0  0  0  0  0  0  0  0  0  0
   -0.3946   -5.5746    0.0000 C   0  0  0  0  0  0  0  0  0  0  0  0
   -1.3893   -5.4711    0.0000 N   0  0  0  0  0  0  0  0  0  0  0  0
    0.0130   -6.4878    0.0000 N   0  0  0  0  0  0  0  0  0  0  0  0
    0.3717   -3.0423    0.0000 C   0  0  0  0  0  0  0  0  0  0  0  0
    0.0626   -2.0897    0.0000 C   0  0  0  0  0  0  0  0  0  0  0  0
    0.8718   -1.4993    0.0000 N   0  0  0  0  0  0  0  0  0  0  0  0
    1.6846   -2.0897    0.0000 N   0  0  0  0  0  0  0  0  0  0  0  0
    1.3718   -3.0400    0.0000 C   0  0  0  0  0  0  0  0  0  0  0  0
    0.8707   -0.4993    0.0000 C   0  0  0  0  0  0  0  0  0  0  0  0
    1.7371    0.0000    0.0000 C   0  0  0  0  0  0  0  0  0  0  0  0
    1.7414    1.0089    0.0000 C   0  0  0  0  0  0  0  0  0  0  0  0
    0.8707    1.5185    0.0000 C   0  0  0  0  0  0  0  0  0  0  0  0
    0.0000    1.0089    0.0000 C   0  0  0  0  0  0  0  0  0  0  0  0
    0.0000    0.0000    0.0000 C   0  0  0  0  0  0  0  0  0  0  0  0
    2.6125    1.5125    0.0000 N   0  0  0  0  0  0  0  0  0  0  0  0
    3.4848    1.0014    0.0000 C   0  0  0  0  0  0  0  0  0  0  0  0
    3.4805   -0.0073    0.0000 C   0  0  0  0  0  0  0  0  0  0  0  0
    2.6039   -0.5053    0.0000 C   0  0  0  0  0  0  0  0  0  0  0  0
   -0.8887   -1.7815    0.0000 C   0  0  0  0  0  0  0  0  0  0  0  0
   -1.8688   -1.9895    0.0000 C   0  0  0  0  0  0  0  0  0  0  0  0
   -1.5605   -1.0382    0.0000 C   0  0  0  0  0  0  0  0  0  0  0  0
  1  2  2  0  0  0  0
  1  3  1  0  0  0  0
  3  4  1  0  0  0  0
  4  5  2  3  0  0  0
  4  6  1  0  0  0  0
  1  7  1  0  0  0  0
  7 11  1  0  0  0  0
  7  8  2  0  0  0  0
  8  9  1  0  0  0  0
  9 10  1  0  0  0  0
 10 11  2  0  0  0  0
  9 12  1  0  0  0  0
 12 17  2  0  0  0  0
 12 13  1  0  0  0  0
 13 21  2  0  0  0  0
 13 14  1  0  0  0  0
 14 15  1  0  0  0  0
 15 16  2  0  0  0  0
 16 17  1  0  0  0  0
 14 18  2  0  0  0  0
 18 19  1  0  0  0  0
 19 20  2  0  0  0  0
 20 21  1  0  0  0  0
  8 22  1  0  0  0  0
 22 24  1  0  0  0  0
 22 23  1  0  0  0  0
 23 24  1  0  0  0  0
M  END
>  <Name>
Zoniporide

>  <CAS #>
241800-98-6

>  <human Clearance (mL/min/kg)>
21.0

>  <Primary mechanism (metabolic, biliary or renal)>
metabolic

>  <seqId>
1001.0

>  <Code (mechanism and clearance degree index)>
M1

>  < Five M1 and R1 test groups>
M1_5

>  <formamide>
0

>  <prodrug phosphates>
0

>  <VolSurf_V>
673.125

>  <VolSurf_S>
455.399

>  <VolSurf_R>
1.4781

>  <VolSurf_G>
1.35758

>  <VolSurf_IW1>
0.0359089

>  <VolSurf_IW2>
0.0944637

>  <VolSurf_IW3>
0.216009

>  <VolSurf_IW4>
0.433794

>  <VolSurf_ID1>
0.0365932

>  <VolSurf_ID2>
0.0305531

>  <VolSurf_ID3>
0.0480607

>  <VolSurf_ID4>
0.0717787

>  <VolSurf_HL1>
1.07614

>  <VolSurf_HL2>
0.630072

>  <VolSurf_A>
1.52684

>  <VolSurf_CP>
6.03551

>  <VolSurf_POL>
35.001

>  <VolSurf_MW>
320.348

>  <VolSurf_FLEX>
0.855012

>  <VolSurf_FLEX_RB>
0.171002

>  <VolSurf_NCC>
0.0

>  <VolSurf_LOGP n-Oct>
1.045

>  <VolSurf_LOGP c-Hex>
-0.612

>  <VolSurf_PSA>
107.24

>  <VolSurf_HSA>
348.159

>  <VolSurf_PSAR>
0.235486

>  <VolSurf_PHSAR>
0.30802

>  <VolSurf_LgD5>
-0.455759

>  <VolSurf_LgD6>
0.43927

>  <VolSurf_LgD7>
0.930038

>  <VolSurf_LgD7.5>
1.00526

>  <VolSurf_LgD8>
1.03204

>  <VolSurf_LgD9>
1.04369

>  <VolSurf_LgD10>
1.04487

>  <VolSurf_AUS7.4>
1.95391

>  <VolSurf_%FU4>
0.2694

>  <VolSurf_%FU5>
3.12678

>  <VolSurf_%FU6>
24.7659

>  <VolSurf_%FU7>
76.7356

>  <VolSurf_%FU8>
97.058

>  <VolSurf_%FU9>
99.6978

>  <VolSurf_%FU10>
99.9697

>  <ID>
480

>  <MOKAID>
481

>  <Clearance Route>
metabolic

>  <PC1>
1.60943

>  <PC2>
-0.23717800000000003

$$$$
Zopiclone
  -OEChem-08301611272D

 27 30  0     1  0  0  0  0  0999 V2000
    3.5726   -6.8266    0.0000 C   0  0  0  0  0  0  0  0  0  0  0  0
    3.2637   -5.8755    0.0000 N   0  0  0  0  0  0  0  0  0  0  0  0
    2.2819   -5.6608    0.0000 C   0  0  0  0  0  0  0  0  0  0  0  0
    1.9714   -4.7049    0.0000 C   0  0  0  0  0  0  0  0  0  0  0  0
    2.6426   -3.9637    0.0000 N   0  0  0  0  0  0  0  0  0  0  0  0
    3.6213   -4.1689    0.0000 C   0  0  0  0  0  0  0  0  0  0  0  0
    3.9318   -5.1248    0.0000 C   0  0  0  0  0  0  0  0  0  0  0  0
    2.3336   -3.0126    0.0000 C   0  0  0  0  0  0  0  0  0  0  0  0
    1.3555   -2.8046    0.0000 O   0  0  0  0  0  0  0  0  0  0  0  0
    3.0028   -2.2695    0.0000 O   0  0  0  0  0  0  0  0  0  0  0  0
    2.6938   -1.3184    0.0000 C   0  0  3  0  0  0  0  0  0  0  0  0
    3.2858   -0.5036    0.0000 N   0  0  0  0  0  0  0  0  0  0  0  0
    2.6938    0.3110    0.0000 C   0  0  0  0  0  0  0  0  0  0  0  0
    3.0028    1.2620    0.0000 O   0  0  0  0  0  0  0  0  0  0  0  0
    1.7360   -0.0000    0.0000 C   0  0  0  0  0  0  0  0  0  0  0  0
    0.8680    0.5079    0.0000 N   0  0  0  0  0  0  0  0  0  0  0  0
    0.0000    0.0000    0.0000 C   0  0  0  0  0  0  0  0  0  0  0  0
   -0.0000   -1.0058    0.0000 C   0  0  0  0  0  0  0  0  0  0  0  0
    0.8680   -1.5037    0.0000 N   0  0  0  0  0  0  0  0  0  0  0  0
    1.7360   -1.0071    0.0000 C   0  0  0  0  0  0  0  0  0  0  0  0
    4.2858   -0.5035    0.0000 C   0  0  0  0  0  0  0  0  0  0  0  0
    4.7858    0.3685    0.0000 C   0  0  0  0  0  0  0  0  0  0  0  0
    5.7858    0.3686    0.0000 C   0  0  0  0  0  0  0  0  0  0  0  0
    6.2909   -0.4945    0.0000 C   0  0  0  0  0  0  0  0  0  0  0  0
    7.2909   -0.4900    0.0000 Cl  0  0  0  0  0  0  0  0  0  0  0  0
    5.7910   -1.3665    0.0000 C   0  0  0  0  0  0  0  0  0  0  0  0
    4.7859   -1.3755    0.0000 N   0  0  0  0  0  0  0  0  0  0  0  0
  1  2  1  0  0  0  0
  2  7  1  0  0  0  0
  2  3  1  0  0  0  0
  3  4  1  0  0  0  0
  4  5  1  0  0  0  0
  5  6  1  0  0  0  0
  6  7  1  0  0  0  0
  5  8  1  0  0  0  0
  8  9  2  0  0  0  0
  8 10  1  0  0  0  0
 10 11  1  0  0  0  0
 11 20  1  0  0  0  0
 11 12  1  0  0  0  0
 12 13  1  0  0  0  0
 13 14  2  0  0  0  0
 13 15  1  0  0  0  0
 15 20  2  0  0  0  0
 15 16  1  0  0  0  0
 16 17  2  0  0  0  0
 17 18  1  0  0  0  0
 18 19  2  0  0  0  0
 19 20  1  0  0  0  0
 12 21  1  0  0  0  0
 21 27  2  0  0  0  0
 21 22  1  0  0  0  0
 22 23  2  0  0  0  0
 23 24  1  0  0  0  0
 24 25  1  0  0  0  0
 24 26  2  0  0  0  0
 26 27  1  0  0  0  0
M  END
>  <Name>
Zopiclone

>  <CAS #>
43200-80-2

>  <human Clearance (mL/min/kg)>
3.3

>  <Primary mechanism (metabolic, biliary or renal)>
metabolic

>  <seqId>
1002.0

>  <Code (mechanism and clearance degree index)>
M1

>  < Five M1 and R1 test groups>
M1_2

>  <formamide>
0

>  <prodrug phosphates>
0

>  <VolSurf_V>
803.125

>  <VolSurf_S>
554.525

>  <VolSurf_R>
1.44831

>  <VolSurf_G>
1.52888

>  <VolSurf_IW1>
0.0660677

>  <VolSurf_IW2>
0.173874

>  <VolSurf_IW3>
0.381758

>  <VolSurf_IW4>
0.613735

>  <VolSurf_ID1>
0.0422163

>  <VolSurf_ID2>
0.122969

>  <VolSurf_ID3>
0.201028

>  <VolSurf_ID4>
0.305808

>  <VolSurf_HL1>
1.91446

>  <VolSurf_HL2>
1.53355

>  <VolSurf_A>
2.80933

>  <VolSurf_CP>
0.706372

>  <VolSurf_POL>
39.482

>  <VolSurf_MW>
389.816

>  <VolSurf_FLEX>
1.50526

>  <VolSurf_FLEX_RB>
0.301051

>  <VolSurf_NCC>
1.0

>  <VolSurf_LOGP n-Oct>
0.77

>  <VolSurf_LOGP c-Hex>
-1.539

>  <VolSurf_PSA>
98.69

>  <VolSurf_HSA>
455.835

>  <VolSurf_PSAR>
0.177972

>  <VolSurf_PHSAR>
0.216504

>  <VolSurf_LgD5>
-2.1318

>  <VolSurf_LgD6>
-1.24668

>  <VolSurf_LgD7>
-0.294505

>  <VolSurf_LgD7.5>
0.130504

>  <VolSurf_LgD8>
0.455432

>  <VolSurf_LgD9>
0.726102

>  <VolSurf_LgD10>
0.765405

>  <VolSurf_AUS7.4>
1.29664

>  <VolSurf_%FU4>
0.00931131

>  <VolSurf_%FU5>
0.0938083

>  <VolSurf_%FU6>
0.930996

>  <VolSurf_%FU7>
8.59084

>  <VolSurf_%FU8>
48.4491

>  <VolSurf_%FU9>
90.3831

>  <VolSurf_%FU10>
98.9472

>  <ID>
481

>  <MOKAID>
482

>  <Clearance Route>
possible billary

>  <PC1>
0.355526

>  <PC2>
-0.260857

$$$$
Zotarolimus
  -OEChem-08301611272D

 71 75  0     1  0  0  0  0  0999 V2000
   -8.8968    8.5828    0.0000 C   0  0  0  0  0  0  0  0  0  0  0  0
   -8.0303    8.0836    0.0000 O   0  0  0  0  0  0  0  0  0  0  0  0
   -8.0294    7.0836    0.0000 C   0  0  2  0  0  0  0  0  0  0  0  0
   -7.1570    6.5844    0.0000 C   0  0  0  0  0  0  0  0  0  0  0  0
   -7.1650    5.5792    0.0000 C   0  0  2  0  0  0  0  0  0  0  0  0
   -6.3015    5.0749    0.0000 C   0  0  0  0  0  0  0  0  0  0  0  0
   -6.3065    4.0749    0.0000 C   0  0  1  0  0  0  0  0  0  0  0  0
   -7.1750    3.5793    0.0000 C   0  0  0  0  0  0  0  0  0  0  0  0
   -5.4430    3.5706    0.0000 C   0  0  2  0  0  0  0  0  0  0  0  0
   -4.4995    4.1028    0.0000 C   0  0  0  0  0  0  0  0  0  0  0  0
   -3.6529    3.5706    0.0000 C   0  0  0  0  0  0  0  0  0  0  0  0
   -3.6778    2.5709    0.0000 O   0  0  0  0  0  0  0  0  0  0  0  0
   -2.7045    4.1028    0.0000 C   0  0  2  0  0  0  0  0  0  0  0  0
   -2.7087    5.1028    0.0000 C   0  0  0  0  0  0  0  0  0  0  0  0
   -1.7370    3.5706    0.0000 C   0  0  0  0  0  0  0  0  0  0  0  0
   -1.7370    2.2643    0.0000 C   0  0  0  0  0  0  0  0  0  0  0  0
   -2.6082    1.7734    0.0000 C   0  0  0  0  0  0  0  0  0  0  0  0
   -0.8660    1.7369    0.0000 C   0  0  1  0  0  0  0  0  0  0  0  0
    0.0052    2.2278    0.0000 O   0  0  0  0  0  0  0  0  0  0  0  0
   -0.8660    0.5032    0.0000 C   0  0  1  0  0  0  0  0  0  0  0  0
   -1.7327    0.0044    0.0000 O   0  0  0  0  0  0  0  0  0  0  0  0
   -1.7341   -0.9956    0.0000 C   0  0  0  0  0  0  0  0  0  0  0  0
    0.0000   -0.0000    0.0000 C   0  0  0  0  0  0  0  0  0  0  0  0
    0.8667    0.4988    0.0000 O   0  0  0  0  0  0  0  0  0  0  0  0
    0.0000   -1.3305    0.0000 C   0  0  2  0  0  0  0  0  0  0  0  0
   -0.9466   -1.6530    0.0000 C   0  0  0  0  0  0  0  0  0  0  0  0
    0.8129   -2.3852    0.0000 C   0  0  0  0  0  0  0  0  0  0  0  0
    0.0919   -3.3383    0.0000 C   0  0  2  0  0  0  0  0  0  0  0  0
    0.4473   -4.2730    0.0000 C   0  0  0  0  0  0  0  0  0  0  0  0
   -0.9774   -3.1255    0.0000 C   0  0  0  0  0  0  0  0  0  0  0  0
   -1.8336   -3.7108    0.0000 C   0  0  0  0  0  0  0  0  0  0  0  0
   -2.7433   -3.1980    0.0000 C   0  0  0  0  0  0  0  0  0  0  0  0
   -3.6819   -3.7108    0.0000 C   0  0  0  0  0  0  0  0  0  0  0  0
   -4.5915   -3.1980    0.0000 C   0  0  0  0  0  0  0  0  0  0  0  0
   -5.4913   -3.7108    0.0000 C   0  0  0  0  0  0  0  0  0  0  0  0
   -5.4890   -4.7108    0.0000 C   0  0  0  0  0  0  0  0  0  0  0  0
   -6.4009   -3.1980    0.0000 C   0  0  2  0  0  0  0  0  0  0  0  0
   -7.2767   -3.7108    0.0000 C   0  0  0  0  0  0  0  0  0  0  0  0
   -8.2298   -3.1980    0.0000 C   0  0  2  0  0  0  0  0  0  0  0  0
   -9.1489   -3.7642    0.0000 C   0  0  0  0  0  0  0  0  0  0  0  0
  -10.0489   -3.2367    0.0000 C   0  0  0  0  0  0  0  0  0  0  0  0
  -10.0489   -2.1965    0.0000 C   0  0  1  0  0  0  0  0  0  0  0  0
  -10.9288   -1.7213    0.0000 C   0  0  0  0  0  0  0  0  0  0  0  0
   -9.1489   -1.6063    0.0000 C   0  0  1  0  0  0  0  0  0  0  0  0
  -10.0288   -1.1311    0.0000 O   0  0  0  0  0  0  0  0  0  0  0  0
   -8.2395   -2.1385    0.0000 O   0  0  0  0  0  0  0  0  0  0  0  0
   -9.1489   -0.4353    0.0000 C   0  0  0  0  0  0  0  0  0  0  0  0
  -10.0111    0.0713    0.0000 O   0  0  0  0  0  0  0  0  0  0  0  0
   -8.2201    0.0822    0.0000 C   0  0  0  0  0  0  0  0  0  0  0  0
   -7.3579   -0.4244    0.0000 O   0  0  0  0  0  0  0  0  0  0  0  0
   -8.2201    1.2676    0.0000 N   0  0  0  0  0  0  0  0  0  0  0  0
   -9.1489    1.7708    0.0000 C   0  0  0  0  0  0  0  0  0  0  0  0
   -9.1489    2.7821    0.0000 C   0  0  0  0  0  0  0  0  0  0  0  0
   -8.2201    3.3577    0.0000 C   0  0  0  0  0  0  0  0  0  0  0  0
   -7.3444    2.8448    0.0000 C   0  0  0  0  0  0  0  0  0  0  0  0
   -7.3444    1.7708    0.0000 C   0  0  1  0  0  0  0  0  0  0  0  0
   -6.3671    1.1999    0.0000 C   0  0  0  0  0  0  0  0  0  0  0  0
   -6.3682    0.1999    0.0000 O   0  0  0  0  0  0  0  0  0  0  0  0
   -5.4430    1.7369    0.0000 O   0  0  0  0  0  0  0  0  0  0  0  0
   -6.4091   -2.1980    0.0000 O   0  0  0  0  0  0  0  0  0  0  0  0
   -7.2792   -1.7051    0.0000 C   0  0  0  0  0  0  0  0  0  0  0  0
   -8.0366    5.0784    0.0000 C   0  0  0  0  0  0  0  0  0  0  0  0
   -8.9001    5.5827    0.0000 C   0  0  0  0  0  0  0  0  0  0  0  0
   -8.9010    6.5828    0.0000 C   0  0  2  0  0  0  0  0  0  0  0  0
   -9.7667    7.0833    0.0000 N   0  0  0  0  0  0  0  0  0  0  0  0
  -10.6816    6.6787    0.0000 C   0  0  0  0  0  0  0  0  0  0  0  0
  -11.3533    7.4194    0.0000 N   0  0  0  0  0  0  0  0  0  0  0  0
  -10.8534    8.2872    0.0000 N   0  0  0  0  0  0  0  0  0  0  0  0
   -9.8730    8.0823    0.0000 N   0  0  0  0  0  0  0  0  0  0  0  0
   -9.1051   -2.7144    0.0000 H   0  0  0  0  0  0  0  0  0  0  0  0
   -6.4771    2.2686    0.0000 H   0  0  0  0  0  0  0  0  0  0  0  0
  1  2  1  0  0  0  0
  3  2  1  6  0  0  0
  3 64  1  0  0  0  0
  3  4  1  0  0  0  0
  4  5  1  0  0  0  0
  5  6  1  6  0  0  0
  6  7  1  0  0  0  0
  7  8  1  6  0  0  0
  7  9  1  0  0  0  0
  9 59  1  0  0  0  0
  9 10  1  6  0  0  0
 10 11  1  0  0  0  0
 11 12  2  0  0  0  0
 11 13  1  0  0  0  0
 13 14  1  6  0  0  0
 13 15  1  0  0  0  0
 15 16  2  0  0  0  0
 16 17  1  0  0  0  0
 16 18  1  0  0  0  0
 18 19  1  1  0  0  0
 18 20  1  0  0  0  0
 20 21  1  6  0  0  0
 21 22  1  0  0  0  0
 20 23  1  0  0  0  0
 23 24  2  0  0  0  0
 23 25  1  0  0  0  0
 25 26  1  1  0  0  0
 25 27  1  0  0  0  0
 27 28  1  0  0  0  0
 28 29  1  6  0  0  0
 28 30  1  0  0  0  0
 30 31  2  0  0  0  0
 31 32  1  0  0  0  0
 32 33  2  0  0  0  0
 33 34  1  0  0  0  0
 34 35  2  0  0  0  0
 35 36  1  0  0  0  0
 35 37  1  0  0  0  0
 37 38  1  0  0  0  0
 38 39  1  0  0  0  0
 39 46  1  0  0  0  0
 39 40  1  0  0  0  0
 40 41  1  0  0  0  0
 41 42  1  0  0  0  0
 42 43  1  1  0  0  0
 42 44  1  0  0  0  0
 44 45  1  1  0  0  0
 44 46  1  0  0  0  0
 44 47  1  0  0  0  0
 47 48  2  0  0  0  0
 47 49  1  0  0  0  0
 49 50  2  0  0  0  0
 49 51  1  0  0  0  0
 51 56  1  0  0  0  0
 51 52  1  0  0  0  0
 52 53  1  0  0  0  0
 53 54  1  0  0  0  0
 54 55  1  0  0  0  0
 55 56  1  0  0  0  0
 56 57  1  0  0  0  0
 57 58  2  0  0  0  0
 57 59  1  0  0  0  0
 37 60  1  6  0  0  0
 60 61  1  0  0  0  0
  5 62  1  0  0  0  0
 62 63  1  0  0  0  0
 63 64  1  0  0  0  0
 64 65  1  6  0  0  0
 65 69  1  0  0  0  0
 65 66  1  0  0  0  0
 66 67  2  0  0  0  0
 67 68  1  0  0  0  0
 68 69  2  0  0  0  0
 39 70  1  1  0  0  0
 56 71  1  6  0  0  0
M  END
>  <Name>
Zotarolimus

>  <CAS #>
221877-54-9

>  <human Clearance (mL/min/kg)>
0.67

>  <Primary mechanism (metabolic, biliary or renal)>
metabolic

>  <seqId>
1003.0

>  <Code (mechanism and clearance degree index)>
M1

>  < Five M1 and R1 test groups>
M1_2

>  <formamide>
0

>  <prodrug phosphates>
0

>  <VolSurf_V>
1982.38

>  <VolSurf_S>
1145.67

>  <VolSurf_R>
1.73032

>  <VolSurf_G>
1.8394

>  <VolSurf_IW1>
0.0144794

>  <VolSurf_IW2>
0.0538504

>  <VolSurf_IW3>
0.0879425

>  <VolSurf_IW4>
0.0716395

>  <VolSurf_ID1>
0.00906938

>  <VolSurf_ID2>
0.0206456

>  <VolSurf_ID3>
0.0363719

>  <VolSurf_ID4>
0.150391

>  <VolSurf_HL1>
3.27119

>  <VolSurf_HL2>
4.05622

>  <VolSurf_A>
1.36828

>  <VolSurf_CP>
1.12681

>  <VolSurf_POL>
101.229

>  <VolSurf_MW>
966.209

>  <VolSurf_FLEX>
1.44467

>  <VolSurf_FLEX_RB>
0.0760353

>  <VolSurf_NCC>
0.0

>  <VolSurf_LOGP n-Oct>
5.428

>  <VolSurf_LOGP c-Hex>
1.117

>  <VolSurf_PSA>
229.07

>  <VolSurf_HSA>
916.599

>  <VolSurf_PSAR>
0.199944

>  <VolSurf_PHSAR>
0.249913

>  <VolSurf_LgD5>
5.428

>  <VolSurf_LgD6>
5.42796

>  <VolSurf_LgD7>
5.42758

>  <VolSurf_LgD7.5>
5.42666

>  <VolSurf_LgD8>
5.42379

>  <VolSurf_LgD9>
5.38762

>  <VolSurf_LgD10>
5.13262

>  <VolSurf_AUS7.4>
2.0

>  <VolSurf_%FU4>
99.9999

>  <VolSurf_%FU5>
99.999

>  <VolSurf_%FU6>
99.9903

>  <VolSurf_%FU7>
99.9026

>  <VolSurf_%FU8>
99.0347

>  <VolSurf_%FU9>
91.1185

>  <VolSurf_%FU10>
50.6388

>  <ID>
482

>  <MOKAID>
483

>  <Clearance Route>
possible billary

>  <PC1>
4.15386

>  <PC2>
-8.19315

$$$$
